 MPI process   1 of  18 is running on node04
 MPI process   2 of  18 is running on node04
 MPI process   3 of  18 is running on node04
 MPI process   4 of  18 is running on node04
 MPI process   5 of  18 is running on node04
 MPI process   6 of  18 is running on node04
 MPI process   7 of  18 is running on node04
 MPI process   8 of  18 is running on node04
 MPI process   9 of  18 is running on node04
 MPI process  10 of  18 is running on node04
 MPI process  11 of  18 is running on node04
 MPI process  12 of  18 is running on node04
 MPI process  13 of  18 is running on node04
 MPI process  14 of  18 is running on node04
 MPI process  15 of  18 is running on node04
 MPI process  16 of  18 is running on node04
 MPI process  17 of  18 is running on node04
 MPI process  18 of  18 is running on node04
 Mesh   1 is assigned to MPI Process   1
 Mesh   2 is assigned to MPI Process   2
 Mesh   3 is assigned to MPI Process   3
 Mesh   4 is assigned to MPI Process   4
 Mesh   5 is assigned to MPI Process   5
 Mesh   6 is assigned to MPI Process   6
 Mesh   7 is assigned to MPI Process   7
 Mesh   8 is assigned to MPI Process   8
 Mesh   9 is assigned to MPI Process   9
 Mesh  10 is assigned to MPI Process  10
 Mesh  11 is assigned to MPI Process  11
 Mesh  12 is assigned to MPI Process  12
 Mesh  13 is assigned to MPI Process  13
 Mesh  14 is assigned to MPI Process  14
 Mesh  15 is assigned to MPI Process  15
 Mesh  16 is assigned to MPI Process  16
 Mesh  17 is assigned to MPI Process  17
 Mesh  18 is assigned to MPI Process  18

 Fire Dynamics Simulator

 Compilation Date : Fri, 26 Sep 2014
 Current Date     : November  6, 2019  13:26:15
 Version          : FDS 6.1.2
 SVN Revision No. : 20564

 MPI Enabled; Number of MPI Processes:    18
 OpenMP Disabled

 Job TITLE        : 
 Job ID string    : Fire_Scenario_1_VentOption3_Ru

 Time Step:      1,    Simulation Time:      0.04 s
 Time Step:      2,    Simulation Time:      0.07 s
 Time Step:      3,    Simulation Time:      0.11 s
 Time Step:      4,    Simulation Time:      0.14 s
 Time Step:      5,    Simulation Time:      0.18 s
 Time Step:      6,    Simulation Time:      0.21 s
 Time Step:      7,    Simulation Time:      0.25 s
 Time Step:      8,    Simulation Time:      0.29 s
 Time Step:      9,    Simulation Time:      0.32 s
 Time Step:     10,    Simulation Time:      0.36 s
 Time Step:     20,    Simulation Time:      0.71 s
 Time Step:     30,    Simulation Time:      1.07 s
 Time Step:     40,    Simulation Time:      1.43 s
 Time Step:     50,    Simulation Time:      1.79 s
 Time Step:     60,    Simulation Time:      2.14 s
 Time Step:     70,    Simulation Time:      2.50 s
 Time Step:     80,    Simulation Time:      2.86 s
 Time Step:     90,    Simulation Time:      3.21 s
 Time Step:    100,    Simulation Time:      3.57 s
 Time Step:    200,    Simulation Time:      7.14 s
 Time Step:    300,    Simulation Time:     10.71 s
 Time Step:    400,    Simulation Time:     14.29 s
 Time Step:    500,    Simulation Time:     17.86 s
 Time Step:    600,    Simulation Time:     21.43 s
 Time Step:    700,    Simulation Time:     25.00 s
 Time Step:    800,    Simulation Time:     28.57 s
 Time Step:    900,    Simulation Time:     32.14 s
 Time Step:   1000,    Simulation Time:     35.71 s
 Time Step:   1100,    Simulation Time:     39.29 s
 Time Step:   1200,    Simulation Time:     42.86 s
 Time Step:   1300,    Simulation Time:     46.43 s
 Time Step:   1400,    Simulation Time:     50.00 s
 Time Step:   1500,    Simulation Time:     53.57 s
 Time Step:   1600,    Simulation Time:     57.14 s
 Time Step:   1700,    Simulation Time:     60.71 s
 Time Step:   1800,    Simulation Time:     63.64 s
 Time Step:   1900,    Simulation Time:     66.68 s
 Time Step:   2000,    Simulation Time:     69.60 s
 Time Step:   2100,    Simulation Time:     72.63 s
 Time Step:   2200,    Simulation Time:     75.67 s
 Time Step:   2300,    Simulation Time:     78.72 s
 Time Step:   2400,    Simulation Time:     81.76 s
 Time Step:   2500,    Simulation Time:     85.09 s
 Time Step:   2600,    Simulation Time:     88.28 s
 Time Step:   2700,    Simulation Time:     90.95 s
 Time Step:   2800,    Simulation Time:     93.48 s
 Time Step:   2900,    Simulation Time:     95.92 s
 Time Step:   3000,    Simulation Time:     98.32 s
 Time Step:   3100,    Simulation Time:    100.77 s
 Time Step:   3200,    Simulation Time:    103.18 s
 Time Step:   3300,    Simulation Time:    105.56 s
 Time Step:   3400,    Simulation Time:    107.91 s
 Time Step:   3500,    Simulation Time:    110.30 s
 Time Step:   3600,    Simulation Time:    112.62 s
 Time Step:   3700,    Simulation Time:    115.02 s
 Time Step:   3800,    Simulation Time:    117.38 s
 Time Step:   3900,    Simulation Time:    119.74 s
 Time Step:   4000,    Simulation Time:    121.78 s
 Time Step:   4100,    Simulation Time:    123.74 s
 Time Step:   4200,    Simulation Time:    125.65 s
 Time Step:   4300,    Simulation Time:    127.61 s
 Time Step:   4400,    Simulation Time:    129.51 s
 Time Step:   4500,    Simulation Time:    131.43 s
 Time Step:   4600,    Simulation Time:    133.47 s
 Time Step:   4700,    Simulation Time:    135.36 s
 Time Step:   4800,    Simulation Time:    137.25 s
 Time Step:   4900,    Simulation Time:    139.21 s
 Time Step:   5000,    Simulation Time:    141.18 s
 Time Step:   5100,    Simulation Time:    143.23 s
 Time Step:   5200,    Simulation Time:    145.19 s
 Time Step:   5300,    Simulation Time:    147.20 s
 Time Step:   5400,    Simulation Time:    149.12 s
 Time Step:   5500,    Simulation Time:    150.88 s
 Time Step:   5600,    Simulation Time:    152.55 s
 Time Step:   5700,    Simulation Time:    154.28 s
 Time Step:   5800,    Simulation Time:    156.04 s
 Time Step:   5900,    Simulation Time:    157.78 s
 Time Step:   6000,    Simulation Time:    159.49 s
 Time Step:   6100,    Simulation Time:    161.19 s
 Time Step:   6200,    Simulation Time:    162.95 s
 Time Step:   6300,    Simulation Time:    164.65 s
 Time Step:   6400,    Simulation Time:    166.35 s
 Time Step:   6500,    Simulation Time:    168.05 s
 Time Step:   6600,    Simulation Time:    169.80 s
 Time Step:   6700,    Simulation Time:    171.56 s
 Time Step:   6800,    Simulation Time:    173.39 s
 Time Step:   6900,    Simulation Time:    175.13 s
 Time Step:   7000,    Simulation Time:    176.93 s
 Time Step:   7100,    Simulation Time:    178.60 s
 Time Step:   7200,    Simulation Time:    180.09 s
 Time Step:   7300,    Simulation Time:    181.62 s
 Time Step:   7400,    Simulation Time:    183.24 s
 Time Step:   7500,    Simulation Time:    184.76 s
 Time Step:   7600,    Simulation Time:    186.25 s
 Time Step:   7700,    Simulation Time:    187.74 s
 Time Step:   7800,    Simulation Time:    189.24 s
 Time Step:   7900,    Simulation Time:    190.84 s
 Time Step:   8000,    Simulation Time:    192.37 s
 Time Step:   8100,    Simulation Time:    193.95 s
 Time Step:   8200,    Simulation Time:    195.40 s
 Time Step:   8300,    Simulation Time:    196.90 s
 Time Step:   8400,    Simulation Time:    198.47 s
 Time Step:   8500,    Simulation Time:    200.07 s
 Time Step:   8600,    Simulation Time:    201.61 s
 Time Step:   8700,    Simulation Time:    203.08 s
 Time Step:   8800,    Simulation Time:    204.60 s
 Time Step:   8900,    Simulation Time:    206.11 s
 Time Step:   9000,    Simulation Time:    207.62 s
 Time Step:   9100,    Simulation Time:    209.11 s
 Time Step:   9200,    Simulation Time:    210.57 s
 Time Step:   9300,    Simulation Time:    212.09 s
 Time Step:   9400,    Simulation Time:    213.56 s
 Time Step:   9500,    Simulation Time:    214.91 s
 Time Step:   9600,    Simulation Time:    216.27 s
 Time Step:   9700,    Simulation Time:    217.64 s
 Time Step:   9800,    Simulation Time:    219.02 s
 Time Step:   9900,    Simulation Time:    220.58 s
 Time Step:  10000,    Simulation Time:    222.14 s
 Time Step:  10100,    Simulation Time:    223.72 s
 Time Step:  10200,    Simulation Time:    225.24 s
 Time Step:  10300,    Simulation Time:    226.83 s
 Time Step:  10400,    Simulation Time:    228.54 s
 Time Step:  10500,    Simulation Time:    230.42 s
 Time Step:  10600,    Simulation Time:    232.32 s
 Time Step:  10700,    Simulation Time:    234.34 s
 Time Step:  10800,    Simulation Time:    236.14 s
 Time Step:  10900,    Simulation Time:    237.75 s
 Time Step:  11000,    Simulation Time:    239.16 s
 Time Step:  11100,    Simulation Time:    240.69 s
 Time Step:  11200,    Simulation Time:    242.11 s
 Time Step:  11300,    Simulation Time:    243.59 s
 Time Step:  11400,    Simulation Time:    245.07 s
 Time Step:  11500,    Simulation Time:    246.47 s
 Time Step:  11600,    Simulation Time:    247.96 s
 Time Step:  11700,    Simulation Time:    249.39 s
 Time Step:  11800,    Simulation Time:    250.96 s
 Time Step:  11900,    Simulation Time:    252.50 s
 Time Step:  12000,    Simulation Time:    254.03 s
 Time Step:  12100,    Simulation Time:    255.55 s
 Time Step:  12200,    Simulation Time:    257.03 s
 Time Step:  12300,    Simulation Time:    258.59 s
 Time Step:  12400,    Simulation Time:    260.14 s
 Time Step:  12500,    Simulation Time:    261.68 s
 Time Step:  12600,    Simulation Time:    263.20 s
 Time Step:  12700,    Simulation Time:    264.58 s
 Time Step:  12800,    Simulation Time:    266.00 s
 Time Step:  12900,    Simulation Time:    267.40 s
 Time Step:  13000,    Simulation Time:    268.73 s
 Time Step:  13100,    Simulation Time:    270.04 s
 Time Step:  13200,    Simulation Time:    271.41 s
 Time Step:  13300,    Simulation Time:    272.83 s
 Time Step:  13400,    Simulation Time:    274.24 s
 Time Step:  13500,    Simulation Time:    275.71 s
 Time Step:  13600,    Simulation Time:    277.33 s
 Time Step:  13700,    Simulation Time:    278.93 s
 Time Step:  13800,    Simulation Time:    280.60 s
 Time Step:  13900,    Simulation Time:    282.30 s
 Time Step:  14000,    Simulation Time:    284.05 s
 Time Step:  14100,    Simulation Time:    285.90 s
 Time Step:  14200,    Simulation Time:    287.49 s
 Time Step:  14300,    Simulation Time:    289.01 s
 Time Step:  14400,    Simulation Time:    290.77 s
 Time Step:  14500,    Simulation Time:    292.50 s
 Time Step:  14600,    Simulation Time:    294.27 s
 Time Step:  14700,    Simulation Time:    295.63 s
 Time Step:  14800,    Simulation Time:    297.03 s
 Time Step:  14900,    Simulation Time:    298.36 s
 Time Step:  15000,    Simulation Time:    299.69 s
 Time Step:  15100,    Simulation Time:    301.07 s
 Time Step:  15200,    Simulation Time:    302.47 s
 Time Step:  15300,    Simulation Time:    303.80 s
 Time Step:  15400,    Simulation Time:    305.10 s
 Time Step:  15500,    Simulation Time:    306.38 s
 Time Step:  15600,    Simulation Time:    307.65 s
 Time Step:  15700,    Simulation Time:    308.92 s
 Time Step:  15800,    Simulation Time:    310.27 s
 Time Step:  15900,    Simulation Time:    311.61 s
 Time Step:  16000,    Simulation Time:    312.99 s
 Time Step:  16100,    Simulation Time:    314.47 s
 Time Step:  16200,    Simulation Time:    316.06 s
 Time Step:  16300,    Simulation Time:    317.73 s
 Time Step:  16400,    Simulation Time:    319.41 s
 Time Step:  16500,    Simulation Time:    320.97 s
 Time Step:  16600,    Simulation Time:    322.41 s
 Time Step:  16700,    Simulation Time:    323.98 s
 Time Step:  16800,    Simulation Time:    325.64 s
 Time Step:  16900,    Simulation Time:    327.09 s
 Time Step:  17000,    Simulation Time:    328.47 s
 Time Step:  17100,    Simulation Time:    329.88 s
 Time Step:  17200,    Simulation Time:    331.20 s
 Time Step:  17300,    Simulation Time:    332.40 s
 Time Step:  17400,    Simulation Time:    333.59 s
 Time Step:  17500,    Simulation Time:    334.92 s
 Time Step:  17600,    Simulation Time:    336.27 s
 Time Step:  17700,    Simulation Time:    337.57 s
 Time Step:  17800,    Simulation Time:    338.91 s
 Time Step:  17900,    Simulation Time:    340.05 s
 Time Step:  18000,    Simulation Time:    341.17 s
 Time Step:  18100,    Simulation Time:    342.38 s
 Time Step:  18200,    Simulation Time:    343.47 s
 Time Step:  18300,    Simulation Time:    344.62 s
 Time Step:  18400,    Simulation Time:    345.72 s
 Time Step:  18500,    Simulation Time:    346.76 s
 Time Step:  18600,    Simulation Time:    347.92 s
 Time Step:  18700,    Simulation Time:    349.05 s
 Time Step:  18800,    Simulation Time:    350.25 s
 Time Step:  18900,    Simulation Time:    351.31 s
 Time Step:  19000,    Simulation Time:    352.43 s
 Time Step:  19100,    Simulation Time:    353.52 s
 Time Step:  19200,    Simulation Time:    354.64 s
 Time Step:  19300,    Simulation Time:    355.77 s
 Time Step:  19400,    Simulation Time:    356.88 s
 Time Step:  19500,    Simulation Time:    358.17 s
 Time Step:  19600,    Simulation Time:    359.42 s
 Time Step:  19700,    Simulation Time:    360.87 s
 Time Step:  19800,    Simulation Time:    362.35 s
 Time Step:  19900,    Simulation Time:    363.91 s
 Time Step:  20000,    Simulation Time:    365.39 s
 Time Step:  20100,    Simulation Time:    366.78 s
 Time Step:  20200,    Simulation Time:    368.07 s
 Time Step:  20300,    Simulation Time:    369.24 s
 Time Step:  20400,    Simulation Time:    370.47 s
 Time Step:  20500,    Simulation Time:    371.70 s
 Time Step:  20600,    Simulation Time:    372.99 s
 Time Step:  20700,    Simulation Time:    374.22 s
 Time Step:  20800,    Simulation Time:    375.53 s
 Time Step:  20900,    Simulation Time:    377.02 s
 Time Step:  21000,    Simulation Time:    378.48 s
 Time Step:  21100,    Simulation Time:    379.85 s
 Time Step:  21200,    Simulation Time:    381.20 s
 Time Step:  21300,    Simulation Time:    382.67 s
 Time Step:  21400,    Simulation Time:    384.10 s
 Time Step:  21500,    Simulation Time:    385.49 s
 Time Step:  21600,    Simulation Time:    386.89 s
 Time Step:  21700,    Simulation Time:    388.34 s
 Time Step:  21800,    Simulation Time:    389.60 s
 Time Step:  21900,    Simulation Time:    390.97 s
 Time Step:  22000,    Simulation Time:    392.23 s
 Time Step:  22100,    Simulation Time:    393.46 s
 Time Step:  22200,    Simulation Time:    394.80 s
 Time Step:  22300,    Simulation Time:    396.20 s
 Time Step:  22400,    Simulation Time:    397.63 s
 Time Step:  22500,    Simulation Time:    398.88 s
 Time Step:  22600,    Simulation Time:    400.21 s
 Time Step:  22700,    Simulation Time:    401.41 s
 Time Step:  22800,    Simulation Time:    402.57 s
 Time Step:  22900,    Simulation Time:    403.73 s
 Time Step:  23000,    Simulation Time:    404.85 s
 Time Step:  23100,    Simulation Time:    406.10 s
 Time Step:  23200,    Simulation Time:    407.60 s
 Time Step:  23300,    Simulation Time:    409.03 s
 Time Step:  23400,    Simulation Time:    410.40 s
 Time Step:  23500,    Simulation Time:    411.74 s
 Time Step:  23600,    Simulation Time:    413.12 s
 Time Step:  23700,    Simulation Time:    414.56 s
 Time Step:  23800,    Simulation Time:    415.72 s
 Time Step:  23900,    Simulation Time:    416.87 s
 Time Step:  24000,    Simulation Time:    418.13 s
 Time Step:  24100,    Simulation Time:    419.37 s
 Time Step:  24200,    Simulation Time:    420.64 s
 Time Step:  24300,    Simulation Time:    421.80 s
 Time Step:  24400,    Simulation Time:    423.00 s
 Time Step:  24500,    Simulation Time:    424.19 s
 Time Step:  24600,    Simulation Time:    425.47 s
 Time Step:  24700,    Simulation Time:    426.71 s
 Time Step:  24800,    Simulation Time:    427.94 s
 Time Step:  24900,    Simulation Time:    429.19 s
 Time Step:  25000,    Simulation Time:    430.44 s
 Time Step:  25100,    Simulation Time:    431.85 s
 Time Step:  25200,    Simulation Time:    433.28 s
 Time Step:  25300,    Simulation Time:    434.77 s
 Time Step:  25400,    Simulation Time:    436.05 s
 Time Step:  25500,    Simulation Time:    437.31 s
 Time Step:  25600,    Simulation Time:    438.65 s
 Time Step:  25700,    Simulation Time:    439.94 s
 Time Step:  25800,    Simulation Time:    441.15 s
 Time Step:  25900,    Simulation Time:    442.38 s
 Time Step:  26000,    Simulation Time:    443.71 s
 Time Step:  26100,    Simulation Time:    444.95 s
 Time Step:  26200,    Simulation Time:    446.31 s
 Time Step:  26300,    Simulation Time:    447.70 s
 Time Step:  26400,    Simulation Time:    449.01 s
 Time Step:  26500,    Simulation Time:    450.41 s
 Time Step:  26600,    Simulation Time:    451.82 s
 Time Step:  26700,    Simulation Time:    453.10 s
 Time Step:  26800,    Simulation Time:    454.43 s
 Time Step:  26900,    Simulation Time:    455.76 s
 Time Step:  27000,    Simulation Time:    457.00 s
 Time Step:  27100,    Simulation Time:    458.31 s
 Time Step:  27200,    Simulation Time:    459.76 s
 Time Step:  27300,    Simulation Time:    461.10 s
 Time Step:  27400,    Simulation Time:    462.53 s
 Time Step:  27500,    Simulation Time:    463.75 s
 Time Step:  27600,    Simulation Time:    464.96 s
 Time Step:  27700,    Simulation Time:    466.20 s
 Time Step:  27800,    Simulation Time:    467.48 s
 Time Step:  27900,    Simulation Time:    468.77 s
 Time Step:  28000,    Simulation Time:    470.11 s
 Time Step:  28100,    Simulation Time:    471.52 s
 Time Step:  28200,    Simulation Time:    472.90 s
 Time Step:  28300,    Simulation Time:    474.08 s
 Time Step:  28400,    Simulation Time:    475.13 s
 Time Step:  28500,    Simulation Time:    476.32 s
 Time Step:  28600,    Simulation Time:    477.49 s
 Time Step:  28700,    Simulation Time:    478.59 s
 Time Step:  28800,    Simulation Time:    479.81 s
 Time Step:  28900,    Simulation Time:    481.08 s
 Time Step:  29000,    Simulation Time:    482.50 s
 Time Step:  29100,    Simulation Time:    483.84 s
 Time Step:  29200,    Simulation Time:    485.16 s
 Time Step:  29300,    Simulation Time:    486.52 s
 Time Step:  29400,    Simulation Time:    487.76 s
 Time Step:  29500,    Simulation Time:    489.03 s
 Time Step:  29600,    Simulation Time:    490.21 s
 Time Step:  29700,    Simulation Time:    491.45 s
 Time Step:  29800,    Simulation Time:    492.64 s
 Time Step:  29900,    Simulation Time:    493.79 s
 Time Step:  30000,    Simulation Time:    495.01 s
 Time Step:  30100,    Simulation Time:    496.32 s
 Time Step:  30200,    Simulation Time:    497.61 s
 Time Step:  30300,    Simulation Time:    498.83 s
 Time Step:  30400,    Simulation Time:    500.09 s
 Time Step:  30500,    Simulation Time:    501.34 s
 Time Step:  30600,    Simulation Time:    502.53 s
 Time Step:  30700,    Simulation Time:    503.86 s
 Time Step:  30800,    Simulation Time:    505.34 s
 Time Step:  30900,    Simulation Time:    506.66 s
 Time Step:  31000,    Simulation Time:    507.97 s
 Time Step:  31100,    Simulation Time:    509.32 s
 Time Step:  31200,    Simulation Time:    510.73 s
 Time Step:  31300,    Simulation Time:    512.04 s
 Time Step:  31400,    Simulation Time:    513.30 s
 Time Step:  31500,    Simulation Time:    514.50 s
 Time Step:  31600,    Simulation Time:    515.70 s
 Time Step:  31700,    Simulation Time:    516.89 s
 Time Step:  31800,    Simulation Time:    518.21 s
 Time Step:  31900,    Simulation Time:    519.46 s
 Time Step:  32000,    Simulation Time:    520.75 s
 Time Step:  32100,    Simulation Time:    522.04 s
 Time Step:  32200,    Simulation Time:    523.29 s
 Time Step:  32300,    Simulation Time:    524.57 s
 Time Step:  32400,    Simulation Time:    525.94 s
 Time Step:  32500,    Simulation Time:    527.35 s
 Time Step:  32600,    Simulation Time:    528.66 s
 Time Step:  32700,    Simulation Time:    529.86 s
 Time Step:  32800,    Simulation Time:    531.14 s
 Time Step:  32900,    Simulation Time:    532.49 s
 Time Step:  33000,    Simulation Time:    533.72 s
 Time Step:  33100,    Simulation Time:    534.96 s
 Time Step:  33200,    Simulation Time:    536.23 s
 Time Step:  33300,    Simulation Time:    537.51 s
 Time Step:  33400,    Simulation Time:    538.76 s
 Time Step:  33500,    Simulation Time:    540.05 s
 Time Step:  33600,    Simulation Time:    541.30 s
 Time Step:  33700,    Simulation Time:    542.60 s
 Time Step:  33800,    Simulation Time:    543.90 s
 Time Step:  33900,    Simulation Time:    545.14 s
 Time Step:  34000,    Simulation Time:    546.45 s
 Time Step:  34100,    Simulation Time:    547.75 s
 Time Step:  34200,    Simulation Time:    548.90 s
 Time Step:  34300,    Simulation Time:    550.06 s
 Time Step:  34400,    Simulation Time:    551.32 s
 Time Step:  34500,    Simulation Time:    552.61 s
 Time Step:  34600,    Simulation Time:    554.05 s
 Time Step:  34700,    Simulation Time:    555.32 s
 Time Step:  34800,    Simulation Time:    556.67 s
 Time Step:  34900,    Simulation Time:    557.92 s
 Time Step:  35000,    Simulation Time:    559.27 s
 Time Step:  35100,    Simulation Time:    560.45 s
 Time Step:  35200,    Simulation Time:    561.64 s
 Time Step:  35300,    Simulation Time:    562.73 s
 Time Step:  35400,    Simulation Time:    563.81 s
 Time Step:  35500,    Simulation Time:    564.88 s
 Time Step:  35600,    Simulation Time:    566.00 s
 Time Step:  35700,    Simulation Time:    567.28 s
 Time Step:  35800,    Simulation Time:    568.56 s
 Time Step:  35900,    Simulation Time:    569.81 s
 Time Step:  36000,    Simulation Time:    571.01 s
 Time Step:  36100,    Simulation Time:    572.27 s
 Time Step:  36200,    Simulation Time:    573.53 s
 Time Step:  36300,    Simulation Time:    574.86 s
 Time Step:  36400,    Simulation Time:    576.07 s
 Time Step:  36500,    Simulation Time:    577.24 s
 Time Step:  36600,    Simulation Time:    578.47 s
 Time Step:  36700,    Simulation Time:    579.81 s
 Time Step:  36800,    Simulation Time:    581.18 s
 Time Step:  36900,    Simulation Time:    582.49 s
 Time Step:  37000,    Simulation Time:    583.77 s
 Time Step:  37100,    Simulation Time:    585.07 s
 Time Step:  37200,    Simulation Time:    586.30 s
 Time Step:  37300,    Simulation Time:    587.52 s
 Time Step:  37400,    Simulation Time:    588.92 s
 Time Step:  37500,    Simulation Time:    590.25 s
 Time Step:  37600,    Simulation Time:    591.55 s
 Time Step:  37700,    Simulation Time:    592.75 s
 Time Step:  37800,    Simulation Time:    594.00 s
 Time Step:  37900,    Simulation Time:    595.21 s
 Time Step:  38000,    Simulation Time:    596.32 s
 Time Step:  38100,    Simulation Time:    597.43 s
 Time Step:  38200,    Simulation Time:    598.56 s
 Time Step:  38300,    Simulation Time:    599.78 s
 Time Step:  38400,    Simulation Time:    601.04 s
 Time Step:  38500,    Simulation Time:    602.29 s
 Time Step:  38600,    Simulation Time:    603.62 s
 Time Step:  38700,    Simulation Time:    604.83 s
 Time Step:  38800,    Simulation Time:    606.09 s
 Time Step:  38900,    Simulation Time:    607.36 s
 Time Step:  39000,    Simulation Time:    608.47 s
 Time Step:  39100,    Simulation Time:    609.69 s
 Time Step:  39200,    Simulation Time:    610.87 s
 Time Step:  39300,    Simulation Time:    612.02 s
 Time Step:  39400,    Simulation Time:    613.19 s
 Time Step:  39500,    Simulation Time:    614.46 s
 Time Step:  39600,    Simulation Time:    615.90 s
 Time Step:  39700,    Simulation Time:    617.16 s
 Time Step:  39800,    Simulation Time:    618.40 s
 Time Step:  39900,    Simulation Time:    619.54 s
 Time Step:  40000,    Simulation Time:    620.72 s
 Time Step:  40100,    Simulation Time:    622.00 s
 Time Step:  40200,    Simulation Time:    623.43 s
 Time Step:  40300,    Simulation Time:    624.88 s
 Time Step:  40400,    Simulation Time:    626.13 s
 Time Step:  40500,    Simulation Time:    627.29 s
 Time Step:  40600,    Simulation Time:    628.49 s
 Time Step:  40700,    Simulation Time:    629.69 s
 Time Step:  40800,    Simulation Time:    630.82 s
 Time Step:  40900,    Simulation Time:    631.97 s
 Time Step:  41000,    Simulation Time:    633.17 s
 Time Step:  41100,    Simulation Time:    634.41 s
 Time Step:  41200,    Simulation Time:    635.67 s
 Time Step:  41300,    Simulation Time:    636.99 s
 Time Step:  41400,    Simulation Time:    638.12 s
 Time Step:  41500,    Simulation Time:    639.29 s
 Time Step:  41600,    Simulation Time:    640.47 s
 Time Step:  41700,    Simulation Time:    641.67 s
 Time Step:  41800,    Simulation Time:    642.90 s
 Time Step:  41900,    Simulation Time:    643.98 s
 Time Step:  42000,    Simulation Time:    645.25 s
 Time Step:  42100,    Simulation Time:    646.54 s
 Time Step:  42200,    Simulation Time:    647.77 s
 Time Step:  42300,    Simulation Time:    649.02 s
 Time Step:  42400,    Simulation Time:    650.33 s
 Time Step:  42500,    Simulation Time:    651.57 s
 Time Step:  42600,    Simulation Time:    652.84 s
 Time Step:  42700,    Simulation Time:    654.01 s
 Time Step:  42800,    Simulation Time:    655.14 s
 Time Step:  42900,    Simulation Time:    656.40 s
 Time Step:  43000,    Simulation Time:    657.63 s
 Time Step:  43100,    Simulation Time:    658.75 s
 Time Step:  43200,    Simulation Time:    659.95 s
 Time Step:  43300,    Simulation Time:    661.00 s
 Time Step:  43400,    Simulation Time:    662.16 s
 Time Step:  43500,    Simulation Time:    663.22 s
 Time Step:  43600,    Simulation Time:    664.35 s
 Time Step:  43700,    Simulation Time:    665.54 s
 Time Step:  43800,    Simulation Time:    666.79 s
 Time Step:  43900,    Simulation Time:    668.11 s
 Time Step:  44000,    Simulation Time:    669.30 s
 Time Step:  44100,    Simulation Time:    670.67 s
 Time Step:  44200,    Simulation Time:    671.92 s
 Time Step:  44300,    Simulation Time:    673.08 s
 Time Step:  44400,    Simulation Time:    674.13 s
 Time Step:  44500,    Simulation Time:    675.18 s
 Time Step:  44600,    Simulation Time:    676.25 s
 Time Step:  44700,    Simulation Time:    677.48 s
 Time Step:  44800,    Simulation Time:    678.66 s
 Time Step:  44900,    Simulation Time:    679.82 s
 Time Step:  45000,    Simulation Time:    680.95 s
 Time Step:  45100,    Simulation Time:    682.06 s
 Time Step:  45200,    Simulation Time:    683.12 s
 Time Step:  45300,    Simulation Time:    684.32 s
 Time Step:  45400,    Simulation Time:    685.50 s
 Time Step:  45500,    Simulation Time:    686.71 s
 Time Step:  45600,    Simulation Time:    687.85 s
 Time Step:  45700,    Simulation Time:    688.99 s
 Time Step:  45800,    Simulation Time:    690.11 s
 Time Step:  45900,    Simulation Time:    691.11 s
 Time Step:  46000,    Simulation Time:    692.29 s
 Time Step:  46100,    Simulation Time:    693.49 s
 Time Step:  46200,    Simulation Time:    694.67 s
 Time Step:  46300,    Simulation Time:    695.84 s
 Time Step:  46400,    Simulation Time:    697.02 s
 Time Step:  46500,    Simulation Time:    698.26 s
 Time Step:  46600,    Simulation Time:    699.37 s
 Time Step:  46700,    Simulation Time:    700.46 s
 Time Step:  46800,    Simulation Time:    701.62 s
 Time Step:  46900,    Simulation Time:    702.87 s
 Time Step:  47000,    Simulation Time:    704.05 s
 Time Step:  47100,    Simulation Time:    705.26 s
 Time Step:  47200,    Simulation Time:    706.36 s
 Time Step:  47300,    Simulation Time:    707.55 s
 Time Step:  47400,    Simulation Time:    708.75 s
 Time Step:  47500,    Simulation Time:    709.89 s
 Time Step:  47600,    Simulation Time:    711.06 s
 Time Step:  47700,    Simulation Time:    712.23 s
 Time Step:  47800,    Simulation Time:    713.35 s
 Time Step:  47900,    Simulation Time:    714.43 s
 Time Step:  48000,    Simulation Time:    715.63 s
 Time Step:  48100,    Simulation Time:    716.77 s
 Time Step:  48200,    Simulation Time:    718.01 s
 Time Step:  48300,    Simulation Time:    719.20 s
 Time Step:  48400,    Simulation Time:    720.44 s
 Time Step:  48500,    Simulation Time:    721.63 s
 Time Step:  48600,    Simulation Time:    722.87 s
 Time Step:  48700,    Simulation Time:    724.05 s
 Time Step:  48800,    Simulation Time:    725.16 s
 Time Step:  48900,    Simulation Time:    726.28 s
 Time Step:  49000,    Simulation Time:    727.47 s
 Time Step:  49100,    Simulation Time:    728.59 s
 Time Step:  49200,    Simulation Time:    729.78 s
 Time Step:  49300,    Simulation Time:    730.89 s
 Time Step:  49400,    Simulation Time:    732.05 s
 Time Step:  49500,    Simulation Time:    733.21 s
 Time Step:  49600,    Simulation Time:    734.44 s
 Time Step:  49700,    Simulation Time:    735.65 s
 Time Step:  49800,    Simulation Time:    736.85 s
 Time Step:  49900,    Simulation Time:    738.11 s
 Time Step:  50000,    Simulation Time:    739.36 s
 Time Step:  50100,    Simulation Time:    740.55 s
 Time Step:  50200,    Simulation Time:    741.64 s
 Time Step:  50300,    Simulation Time:    742.73 s
 Time Step:  50400,    Simulation Time:    743.92 s
 Time Step:  50500,    Simulation Time:    745.12 s
 Time Step:  50600,    Simulation Time:    746.35 s
 Time Step:  50700,    Simulation Time:    747.29 s
 Time Step:  50800,    Simulation Time:    748.29 s
 Time Step:  50900,    Simulation Time:    749.37 s
 Time Step:  51000,    Simulation Time:    750.55 s
 Time Step:  51100,    Simulation Time:    751.70 s
 Time Step:  51200,    Simulation Time:    752.77 s
 Time Step:  51300,    Simulation Time:    753.84 s
 Time Step:  51400,    Simulation Time:    755.03 s
 Time Step:  51500,    Simulation Time:    756.12 s
 Time Step:  51600,    Simulation Time:    757.32 s
 Time Step:  51700,    Simulation Time:    758.50 s
 Time Step:  51800,    Simulation Time:    759.58 s
 Time Step:  51900,    Simulation Time:    760.77 s
 Time Step:  52000,    Simulation Time:    761.85 s
 Time Step:  52100,    Simulation Time:    763.11 s
 Time Step:  52200,    Simulation Time:    764.30 s
 Time Step:  52300,    Simulation Time:    765.39 s
 Time Step:  52400,    Simulation Time:    766.49 s
 Time Step:  52500,    Simulation Time:    767.70 s
 Time Step:  52600,    Simulation Time:    768.93 s
 Time Step:  52700,    Simulation Time:    770.10 s
 Time Step:  52800,    Simulation Time:    771.23 s
 Time Step:  52900,    Simulation Time:    772.35 s
 Time Step:  53000,    Simulation Time:    773.56 s
 Time Step:  53100,    Simulation Time:    774.72 s
 Time Step:  53200,    Simulation Time:    775.91 s
 Time Step:  53300,    Simulation Time:    777.11 s
 Time Step:  53400,    Simulation Time:    778.30 s
 Time Step:  53500,    Simulation Time:    779.60 s
 Time Step:  53600,    Simulation Time:    780.70 s
 Time Step:  53700,    Simulation Time:    781.81 s
 Time Step:  53800,    Simulation Time:    782.97 s
 Time Step:  53900,    Simulation Time:    784.11 s
 Time Step:  54000,    Simulation Time:    785.33 s
 Time Step:  54100,    Simulation Time:    786.46 s
 Time Step:  54200,    Simulation Time:    787.60 s
 Time Step:  54300,    Simulation Time:    788.89 s
 Time Step:  54400,    Simulation Time:    790.27 s
 Time Step:  54500,    Simulation Time:    791.40 s
 Time Step:  54600,    Simulation Time:    792.45 s
 Time Step:  54700,    Simulation Time:    793.72 s
 Time Step:  54800,    Simulation Time:    794.93 s
 Time Step:  54900,    Simulation Time:    796.19 s
 Time Step:  55000,    Simulation Time:    797.36 s
 Time Step:  55100,    Simulation Time:    798.51 s
 Time Step:  55200,    Simulation Time:    799.68 s
 Time Step:  55300,    Simulation Time:    800.99 s
 Time Step:  55400,    Simulation Time:    802.17 s
 Time Step:  55500,    Simulation Time:    803.41 s
 Time Step:  55600,    Simulation Time:    804.59 s
 Time Step:  55700,    Simulation Time:    805.73 s
 Time Step:  55800,    Simulation Time:    806.88 s
 Time Step:  55900,    Simulation Time:    807.98 s
 Time Step:  56000,    Simulation Time:    809.22 s
 Time Step:  56100,    Simulation Time:    810.49 s
 Time Step:  56200,    Simulation Time:    811.65 s
 Time Step:  56300,    Simulation Time:    812.91 s
 Time Step:  56400,    Simulation Time:    814.14 s
 Time Step:  56500,    Simulation Time:    815.27 s
 Time Step:  56600,    Simulation Time:    816.38 s
 Time Step:  56700,    Simulation Time:    817.54 s
 Time Step:  56800,    Simulation Time:    818.80 s
 Time Step:  56900,    Simulation Time:    819.91 s
 Time Step:  57000,    Simulation Time:    821.10 s
 Time Step:  57100,    Simulation Time:    822.30 s
 Time Step:  57200,    Simulation Time:    823.44 s
 Time Step:  57300,    Simulation Time:    824.55 s
 Time Step:  57400,    Simulation Time:    825.67 s
 Time Step:  57500,    Simulation Time:    826.85 s
 Time Step:  57600,    Simulation Time:    828.03 s
 Time Step:  57700,    Simulation Time:    829.34 s
 Time Step:  57800,    Simulation Time:    830.58 s
 Time Step:  57900,    Simulation Time:    831.71 s
 Time Step:  58000,    Simulation Time:    832.74 s
 Time Step:  58100,    Simulation Time:    833.87 s
 Time Step:  58200,    Simulation Time:    835.09 s
 Time Step:  58300,    Simulation Time:    836.37 s
 Time Step:  58400,    Simulation Time:    837.69 s
 Time Step:  58500,    Simulation Time:    838.94 s
 Time Step:  58600,    Simulation Time:    840.16 s
 Time Step:  58700,    Simulation Time:    841.41 s
 Time Step:  58800,    Simulation Time:    842.56 s
 Time Step:  58900,    Simulation Time:    843.75 s
 Time Step:  59000,    Simulation Time:    844.96 s
 Time Step:  59100,    Simulation Time:    846.09 s
 Time Step:  59200,    Simulation Time:    847.26 s
 Time Step:  59300,    Simulation Time:    848.42 s
 Time Step:  59400,    Simulation Time:    849.59 s
 Time Step:  59500,    Simulation Time:    850.79 s
 Time Step:  59600,    Simulation Time:    851.85 s
 Time Step:  59700,    Simulation Time:    853.05 s
 Time Step:  59800,    Simulation Time:    854.30 s
 Time Step:  59900,    Simulation Time:    855.58 s
 Time Step:  60000,    Simulation Time:    856.82 s
 Time Step:  60100,    Simulation Time:    858.10 s
 Time Step:  60200,    Simulation Time:    859.38 s
 Time Step:  60300,    Simulation Time:    860.58 s
 Time Step:  60400,    Simulation Time:    861.88 s
 Time Step:  60500,    Simulation Time:    863.01 s
 Time Step:  60600,    Simulation Time:    864.15 s
 Time Step:  60700,    Simulation Time:    865.36 s
 Time Step:  60800,    Simulation Time:    866.69 s
 Time Step:  60900,    Simulation Time:    867.96 s
 Time Step:  61000,    Simulation Time:    869.26 s
 Time Step:  61100,    Simulation Time:    870.42 s
 Time Step:  61200,    Simulation Time:    871.60 s
 Time Step:  61300,    Simulation Time:    872.80 s
 Time Step:  61400,    Simulation Time:    873.99 s
 Time Step:  61500,    Simulation Time:    875.10 s
 Time Step:  61600,    Simulation Time:    876.24 s
 Time Step:  61700,    Simulation Time:    877.43 s
 Time Step:  61800,    Simulation Time:    878.58 s
 Time Step:  61900,    Simulation Time:    879.87 s
 Time Step:  62000,    Simulation Time:    881.07 s
 Time Step:  62100,    Simulation Time:    882.25 s
 Time Step:  62200,    Simulation Time:    883.29 s
 Time Step:  62300,    Simulation Time:    884.43 s
 Time Step:  62400,    Simulation Time:    885.55 s
 Time Step:  62500,    Simulation Time:    886.69 s
 Time Step:  62600,    Simulation Time:    887.82 s
 Time Step:  62700,    Simulation Time:    889.02 s
 Time Step:  62800,    Simulation Time:    890.24 s
 Time Step:  62900,    Simulation Time:    891.44 s
 Time Step:  63000,    Simulation Time:    892.65 s
 Time Step:  63100,    Simulation Time:    893.95 s
 Time Step:  63200,    Simulation Time:    895.15 s
 Time Step:  63300,    Simulation Time:    896.30 s
 Time Step:  63400,    Simulation Time:    897.45 s
 Time Step:  63500,    Simulation Time:    898.65 s
 Time Step:  63600,    Simulation Time:    899.75 s
 Time Step:  63700,    Simulation Time:    901.05 s
 Time Step:  63800,    Simulation Time:    902.23 s
 Time Step:  63900,    Simulation Time:    903.38 s
 Time Step:  64000,    Simulation Time:    904.64 s
 Time Step:  64100,    Simulation Time:    905.81 s
 Time Step:  64200,    Simulation Time:    907.12 s
 Time Step:  64300,    Simulation Time:    908.28 s
 Time Step:  64400,    Simulation Time:    909.52 s
 Time Step:  64500,    Simulation Time:    910.72 s
 Time Step:  64600,    Simulation Time:    911.92 s
 Time Step:  64700,    Simulation Time:    913.02 s
 Time Step:  64800,    Simulation Time:    914.16 s
 Time Step:  64900,    Simulation Time:    915.33 s
 Time Step:  65000,    Simulation Time:    916.44 s
 Time Step:  65100,    Simulation Time:    917.52 s
 Time Step:  65200,    Simulation Time:    918.69 s
 Time Step:  65300,    Simulation Time:    919.87 s
 Time Step:  65400,    Simulation Time:    921.06 s
 Time Step:  65500,    Simulation Time:    922.11 s
 Time Step:  65600,    Simulation Time:    923.32 s
 Time Step:  65700,    Simulation Time:    924.45 s
 Time Step:  65800,    Simulation Time:    925.62 s
 Time Step:  65900,    Simulation Time:    926.77 s
 Time Step:  66000,    Simulation Time:    927.85 s
 Time Step:  66100,    Simulation Time:    929.08 s
 Time Step:  66200,    Simulation Time:    930.22 s
 Time Step:  66300,    Simulation Time:    931.38 s
 Time Step:  66400,    Simulation Time:    932.53 s
 Time Step:  66500,    Simulation Time:    933.69 s
 Time Step:  66600,    Simulation Time:    934.81 s
 Time Step:  66700,    Simulation Time:    935.97 s
 Time Step:  66800,    Simulation Time:    937.14 s
 Time Step:  66900,    Simulation Time:    938.36 s
 Time Step:  67000,    Simulation Time:    939.56 s
 Time Step:  67100,    Simulation Time:    940.78 s
 Time Step:  67200,    Simulation Time:    942.05 s
 Time Step:  67300,    Simulation Time:    943.29 s
 Time Step:  67400,    Simulation Time:    944.43 s
 Time Step:  67500,    Simulation Time:    945.68 s
 Time Step:  67600,    Simulation Time:    946.79 s
 Time Step:  67700,    Simulation Time:    948.03 s
 Time Step:  67800,    Simulation Time:    949.23 s
 Time Step:  67900,    Simulation Time:    950.51 s
 Time Step:  68000,    Simulation Time:    951.76 s
 Time Step:  68100,    Simulation Time:    952.95 s
 Time Step:  68200,    Simulation Time:    954.16 s
 Time Step:  68300,    Simulation Time:    955.27 s
 Time Step:  68400,    Simulation Time:    956.48 s
 Time Step:  68500,    Simulation Time:    957.63 s
 Time Step:  68600,    Simulation Time:    958.79 s
 Time Step:  68700,    Simulation Time:    960.04 s
 Time Step:  68800,    Simulation Time:    961.32 s
 Time Step:  68900,    Simulation Time:    962.60 s
 Time Step:  69000,    Simulation Time:    963.82 s
 Time Step:  69100,    Simulation Time:    965.10 s
 Time Step:  69200,    Simulation Time:    966.29 s
 Time Step:  69300,    Simulation Time:    967.43 s
 Time Step:  69400,    Simulation Time:    968.70 s
 Time Step:  69500,    Simulation Time:    969.92 s
 Time Step:  69600,    Simulation Time:    971.13 s
 Time Step:  69700,    Simulation Time:    972.15 s
 Time Step:  69800,    Simulation Time:    973.30 s
 Time Step:  69900,    Simulation Time:    974.32 s
 Time Step:  70000,    Simulation Time:    975.37 s
 Time Step:  70100,    Simulation Time:    976.56 s
 Time Step:  70200,    Simulation Time:    977.62 s
 Time Step:  70300,    Simulation Time:    978.80 s
 Time Step:  70400,    Simulation Time:    980.02 s
 Time Step:  70500,    Simulation Time:    981.04 s
 Time Step:  70600,    Simulation Time:    982.34 s
 Time Step:  70700,    Simulation Time:    983.43 s
 Time Step:  70800,    Simulation Time:    984.64 s
 Time Step:  70900,    Simulation Time:    985.78 s
 Time Step:  71000,    Simulation Time:    987.15 s
 Time Step:  71100,    Simulation Time:    988.40 s
 Time Step:  71200,    Simulation Time:    989.57 s
 Time Step:  71300,    Simulation Time:    990.61 s
 Time Step:  71400,    Simulation Time:    991.76 s
 Time Step:  71500,    Simulation Time:    992.90 s
 Time Step:  71600,    Simulation Time:    993.97 s
 Time Step:  71700,    Simulation Time:    995.19 s
 Time Step:  71800,    Simulation Time:    996.31 s
 Time Step:  71900,    Simulation Time:    997.54 s
 Time Step:  72000,    Simulation Time:    998.81 s
 Time Step:  72100,    Simulation Time:   1000.01 s
 Time Step:  72200,    Simulation Time:   1001.07 s
 Time Step:  72300,    Simulation Time:   1002.16 s
 Time Step:  72400,    Simulation Time:   1003.44 s
 Time Step:  72500,    Simulation Time:   1004.74 s
 Time Step:  72600,    Simulation Time:   1006.02 s
 Time Step:  72700,    Simulation Time:   1007.28 s
 Time Step:  72800,    Simulation Time:   1008.55 s
 Time Step:  72900,    Simulation Time:   1009.71 s
 Time Step:  73000,    Simulation Time:   1010.93 s
 Time Step:  73100,    Simulation Time:   1012.14 s
 Time Step:  73200,    Simulation Time:   1013.25 s
 Time Step:  73300,    Simulation Time:   1014.56 s
 Time Step:  73400,    Simulation Time:   1015.79 s
 Time Step:  73500,    Simulation Time:   1016.98 s
 Time Step:  73600,    Simulation Time:   1018.16 s
 Time Step:  73700,    Simulation Time:   1019.36 s
 Time Step:  73800,    Simulation Time:   1020.53 s
 Time Step:  73900,    Simulation Time:   1021.80 s
 Time Step:  74000,    Simulation Time:   1022.89 s
 Time Step:  74100,    Simulation Time:   1023.83 s
 Time Step:  74200,    Simulation Time:   1024.97 s
 Time Step:  74300,    Simulation Time:   1026.11 s
 Time Step:  74400,    Simulation Time:   1027.15 s
 Time Step:  74500,    Simulation Time:   1028.37 s
 Time Step:  74600,    Simulation Time:   1029.65 s
 Time Step:  74700,    Simulation Time:   1030.81 s
 Time Step:  74800,    Simulation Time:   1032.01 s
 Time Step:  74900,    Simulation Time:   1033.24 s
 Time Step:  75000,    Simulation Time:   1034.34 s
 Time Step:  75100,    Simulation Time:   1035.52 s
 Time Step:  75200,    Simulation Time:   1036.72 s
 Time Step:  75300,    Simulation Time:   1037.82 s
 Time Step:  75400,    Simulation Time:   1039.05 s
 Time Step:  75500,    Simulation Time:   1040.31 s
 Time Step:  75600,    Simulation Time:   1041.50 s
 Time Step:  75700,    Simulation Time:   1042.71 s
 Time Step:  75800,    Simulation Time:   1043.85 s
 Time Step:  75900,    Simulation Time:   1045.09 s
 Time Step:  76000,    Simulation Time:   1046.40 s
 Time Step:  76100,    Simulation Time:   1047.49 s
 Time Step:  76200,    Simulation Time:   1048.71 s
 Time Step:  76300,    Simulation Time:   1049.89 s
 Time Step:  76400,    Simulation Time:   1051.09 s
 Time Step:  76500,    Simulation Time:   1052.16 s
 Time Step:  76600,    Simulation Time:   1053.35 s
 Time Step:  76700,    Simulation Time:   1054.53 s
 Time Step:  76800,    Simulation Time:   1055.86 s
 Time Step:  76900,    Simulation Time:   1056.97 s
 Time Step:  77000,    Simulation Time:   1058.13 s
 Time Step:  77100,    Simulation Time:   1059.14 s
 Time Step:  77200,    Simulation Time:   1060.31 s
 Time Step:  77300,    Simulation Time:   1061.64 s
 Time Step:  77400,    Simulation Time:   1062.90 s
 Time Step:  77500,    Simulation Time:   1064.12 s
 Time Step:  77600,    Simulation Time:   1065.32 s
 Time Step:  77700,    Simulation Time:   1066.47 s
 Time Step:  77800,    Simulation Time:   1067.55 s
 Time Step:  77900,    Simulation Time:   1068.80 s
 Time Step:  78000,    Simulation Time:   1070.22 s
 Time Step:  78100,    Simulation Time:   1071.42 s
 Time Step:  78200,    Simulation Time:   1072.45 s
 Time Step:  78300,    Simulation Time:   1073.67 s
 Time Step:  78400,    Simulation Time:   1074.73 s
 Time Step:  78500,    Simulation Time:   1075.89 s
 Time Step:  78600,    Simulation Time:   1077.01 s
 Time Step:  78700,    Simulation Time:   1078.13 s
 Time Step:  78800,    Simulation Time:   1079.28 s
 Time Step:  78900,    Simulation Time:   1080.49 s
 Time Step:  79000,    Simulation Time:   1081.74 s
 Time Step:  79100,    Simulation Time:   1082.99 s
 Time Step:  79200,    Simulation Time:   1084.16 s
 Time Step:  79300,    Simulation Time:   1085.45 s
 Time Step:  79400,    Simulation Time:   1086.55 s
 Time Step:  79500,    Simulation Time:   1087.68 s
 Time Step:  79600,    Simulation Time:   1088.90 s
 Time Step:  79700,    Simulation Time:   1090.19 s
 Time Step:  79800,    Simulation Time:   1091.30 s
 Time Step:  79900,    Simulation Time:   1092.41 s
 Time Step:  80000,    Simulation Time:   1093.66 s
 Time Step:  80100,    Simulation Time:   1094.85 s
 Time Step:  80200,    Simulation Time:   1096.09 s
 Time Step:  80300,    Simulation Time:   1097.25 s
 Time Step:  80400,    Simulation Time:   1098.45 s
 Time Step:  80500,    Simulation Time:   1099.60 s
 Time Step:  80600,    Simulation Time:   1100.79 s
 Time Step:  80700,    Simulation Time:   1102.07 s
 Time Step:  80800,    Simulation Time:   1103.35 s
 Time Step:  80900,    Simulation Time:   1104.36 s
 Time Step:  81000,    Simulation Time:   1105.56 s
 Time Step:  81100,    Simulation Time:   1106.82 s
 Time Step:  81200,    Simulation Time:   1107.95 s
 Time Step:  81300,    Simulation Time:   1109.11 s
 Time Step:  81400,    Simulation Time:   1110.27 s
 Time Step:  81500,    Simulation Time:   1111.53 s
 Time Step:  81600,    Simulation Time:   1112.73 s
 Time Step:  81700,    Simulation Time:   1113.88 s
 Time Step:  81800,    Simulation Time:   1115.13 s
 Time Step:  81900,    Simulation Time:   1116.40 s
 Time Step:  82000,    Simulation Time:   1117.67 s
 Time Step:  82100,    Simulation Time:   1118.93 s
 Time Step:  82200,    Simulation Time:   1120.10 s
 Time Step:  82300,    Simulation Time:   1121.28 s
 Time Step:  82400,    Simulation Time:   1122.50 s
 Time Step:  82500,    Simulation Time:   1123.85 s
 Time Step:  82600,    Simulation Time:   1125.16 s
 Time Step:  82700,    Simulation Time:   1126.45 s
 Time Step:  82800,    Simulation Time:   1127.66 s
 Time Step:  82900,    Simulation Time:   1128.84 s
 Time Step:  83000,    Simulation Time:   1130.04 s
 Time Step:  83100,    Simulation Time:   1131.38 s
 Time Step:  83200,    Simulation Time:   1132.57 s
 Time Step:  83300,    Simulation Time:   1133.78 s
 Time Step:  83400,    Simulation Time:   1135.09 s
 Time Step:  83500,    Simulation Time:   1136.32 s
 Time Step:  83600,    Simulation Time:   1137.59 s
 Time Step:  83700,    Simulation Time:   1138.70 s
 Time Step:  83800,    Simulation Time:   1139.75 s
 Time Step:  83900,    Simulation Time:   1140.90 s
 Time Step:  84000,    Simulation Time:   1142.05 s
 Time Step:  84100,    Simulation Time:   1143.29 s
 Time Step:  84200,    Simulation Time:   1144.50 s
 Time Step:  84300,    Simulation Time:   1145.58 s
 Time Step:  84400,    Simulation Time:   1146.80 s
 Time Step:  84500,    Simulation Time:   1148.06 s
 Time Step:  84600,    Simulation Time:   1149.32 s
 Time Step:  84700,    Simulation Time:   1150.45 s
 Time Step:  84800,    Simulation Time:   1151.58 s
 Time Step:  84900,    Simulation Time:   1152.81 s
 Time Step:  85000,    Simulation Time:   1153.85 s
 Time Step:  85100,    Simulation Time:   1155.15 s
 Time Step:  85200,    Simulation Time:   1156.27 s
 Time Step:  85300,    Simulation Time:   1157.42 s
 Time Step:  85400,    Simulation Time:   1158.69 s
 Time Step:  85500,    Simulation Time:   1159.94 s
 Time Step:  85600,    Simulation Time:   1161.19 s
 Time Step:  85700,    Simulation Time:   1162.46 s
 Time Step:  85800,    Simulation Time:   1163.67 s
 Time Step:  85900,    Simulation Time:   1164.92 s
 Time Step:  86000,    Simulation Time:   1166.11 s
 Time Step:  86100,    Simulation Time:   1167.28 s
 Time Step:  86200,    Simulation Time:   1168.45 s
 Time Step:  86300,    Simulation Time:   1169.70 s
 Time Step:  86400,    Simulation Time:   1170.93 s
 Time Step:  86500,    Simulation Time:   1172.24 s
 Time Step:  86600,    Simulation Time:   1173.51 s
 Time Step:  86700,    Simulation Time:   1174.80 s
 Time Step:  86800,    Simulation Time:   1176.12 s
 Time Step:  86900,    Simulation Time:   1177.42 s
 Time Step:  87000,    Simulation Time:   1178.62 s
 Time Step:  87100,    Simulation Time:   1179.93 s
 Time Step:  87200,    Simulation Time:   1181.21 s
 Time Step:  87300,    Simulation Time:   1182.46 s
 Time Step:  87400,    Simulation Time:   1183.64 s
 Time Step:  87500,    Simulation Time:   1184.91 s
 Time Step:  87600,    Simulation Time:   1186.13 s
 Time Step:  87700,    Simulation Time:   1187.22 s
 Time Step:  87800,    Simulation Time:   1188.24 s
 Time Step:  87900,    Simulation Time:   1189.33 s
 Time Step:  88000,    Simulation Time:   1190.71 s
 Time Step:  88100,    Simulation Time:   1191.95 s
 Time Step:  88200,    Simulation Time:   1193.11 s
 Time Step:  88300,    Simulation Time:   1194.15 s
 Time Step:  88400,    Simulation Time:   1195.24 s
 Time Step:  88500,    Simulation Time:   1196.39 s
 Time Step:  88600,    Simulation Time:   1197.62 s
 Time Step:  88700,    Simulation Time:   1198.85 s
 Time Step:  88792,    Simulation Time:   1200.00 s

STOP: FDS completed successfully (CHID: Fire_Scenario_1_VentOption3_Ru)
