sc1_near_upv.fds
Generated by PyroSim - Version 2018.3.1210
22-May-2019 16:33:29

-------------User Section (not generated by PyroSim)-------------




--------------------PyroSim-generated Section--------------------

&HEAD CHID='sc1_near_upv'/
&TIME T_END=900.0/
&DUMP RENDER_FILE='sc1_near_upv.ge1', COLUMN_DUMP_LIMIT=.TRUE., DT_PL3D=60.0, DT_RESTART=1200.0, DT_SLCF=2.0, NFRAMES=450, WRITE_XYZ=.TRUE., PLOT3D_QUANTITY='TEMPERATURE','U-VELOCITY','V-VELOCITY','W-VELOCITY','VISIBILITY'/

&MESH ID='Mesh06', IJK=86,156,40, XB=8.0,16.6,44.4,60.0,-0.2,3.8/
&MESH ID='Mesh07', IJK=92,151,20, XB=-10.4,8.0,29.8,60.0,-0.2,3.8/
&MESH ID='Mesh03', IJK=135,78,43, XB=16.6,43.6,44.4,60.0,-4.0,4.6/
&MESH ID='Mesh01', IJK=212,85,20, XB=-10.4,32.0,60.0,77.0,-0.2,3.8/
&MESH ID='Mesh04', IJK=52,39,22, XB=23.4,33.8,45.8,53.6,4.6,9.2/
&MESH ID='MESH03', IJK=178,73,20, XB=8.0,43.6,29.8,44.4,-0.2,3.8/
&MESH ID='Mesh05', IJK=131,151,20, XB=43.6,69.8,29.8,60.0,-0.2,3.8/
&MESH ID='Mesh02', IJK=144,85,20, XB=32.0,60.8,60.0,77.0,-0.2,3.8/
&MESH ID='MESH', IJK=139,164,20, XB=-10.4,17.4,-3.0,29.8,-0.2,3.8/
&MESH ID='MESH02', IJK=131,164,20, XB=17.4,43.6,-3.0,29.8,-0.2,3.8/
&MESH ID='MESH01', IJK=131,164,20, XB=43.6,69.8,-3.0,29.8,-0.2,3.8/

&SPEC ID='WATER VAPOR'/

&PART ID='Water',
      SPEC_ID='WATER VAPOR',
      DIAMETER=800.0,
      MONODISPERSE=.TRUE.,
      AGE=10.0,
      SAMPLING_FACTOR=1/

&REAC ID='50/50 Wood Poly',
      FYI='FYI 50% WOOD 50% POLYURETHANE',
      FUEL='REAC_FUEL',
      C=4.85,
      H=6.65,
      O=0.5,
      N=2.3,
      AUTO_IGNITION_TEMPERATURE=0.0,
      SOOT_YIELD=0.1,
      EPUMO2=1.209E4,
      IDEAL=.TRUE./

&RAMP ID='time_doors_RAMP', T=29.75, F=-1.0/
&RAMP ID='time_doors_RAMP', T=30.25, F=1.0/
&RAMP ID='time_doors_RAMP', T=179.75, F=1.0/
&RAMP ID='time_doors_RAMP', T=180.25, F=-1.0/
&PROP ID='Generic Commercial Link_Floor spray',
      QUANTITY='SPRINKLER LINK TEMPERATURE',
      ACTIVATION_TEMPERATURE=68.0,
      RTI=50.0,
      PART_ID='Water',
      OFFSET=0.2,
      K_FACTOR=80.0,
      OPERATING_PRESSURE=0.5,
      SPRAY_PATTERN_TABLE='Generic Commercial Link_Floor spray_SPRAY_PATTERN_TABLE'/
&TABL ID='Generic Commercial Link_Floor spray_SPRAY_PATTERN_TABLE', TABLE_DATA=0.0,2.95,0.1,359.9,4.66,0.0104/
&TABL ID='Generic Commercial Link_Floor spray_SPRAY_PATTERN_TABLE', TABLE_DATA=2.95,5.9,0.1,359.9,4.65,0.0109/
&TABL ID='Generic Commercial Link_Floor spray_SPRAY_PATTERN_TABLE', TABLE_DATA=5.9,8.85,0.1,359.9,4.63,0.0121/
&TABL ID='Generic Commercial Link_Floor spray_SPRAY_PATTERN_TABLE', TABLE_DATA=8.85,11.8,0.1,359.9,4.64,0.0135/
&TABL ID='Generic Commercial Link_Floor spray_SPRAY_PATTERN_TABLE', TABLE_DATA=11.8,14.75,0.1,359.9,4.68,0.0152/
&TABL ID='Generic Commercial Link_Floor spray_SPRAY_PATTERN_TABLE', TABLE_DATA=14.75,17.7,0.1,359.9,4.75,0.0166/
&TABL ID='Generic Commercial Link_Floor spray_SPRAY_PATTERN_TABLE', TABLE_DATA=17.7,20.65,0.1,359.9,4.8,0.0181/
&TABL ID='Generic Commercial Link_Floor spray_SPRAY_PATTERN_TABLE', TABLE_DATA=20.65,23.6,0.1,359.9,4.85,0.0207/
&TABL ID='Generic Commercial Link_Floor spray_SPRAY_PATTERN_TABLE', TABLE_DATA=23.6,26.55,0.1,359.9,4.91,0.0236/
&TABL ID='Generic Commercial Link_Floor spray_SPRAY_PATTERN_TABLE', TABLE_DATA=26.55,29.5,0.1,359.9,4.96,0.0267/
&TABL ID='Generic Commercial Link_Floor spray_SPRAY_PATTERN_TABLE', TABLE_DATA=29.5,32.45,0.1,359.9,5.07,0.0308/
&TABL ID='Generic Commercial Link_Floor spray_SPRAY_PATTERN_TABLE', TABLE_DATA=32.45,35.4,0.1,359.9,5.18,0.0382/
&TABL ID='Generic Commercial Link_Floor spray_SPRAY_PATTERN_TABLE', TABLE_DATA=35.4,38.35,0.1,359.9,5.31,0.0438/
&TABL ID='Generic Commercial Link_Floor spray_SPRAY_PATTERN_TABLE', TABLE_DATA=38.35,41.3,0.1,359.9,5.28,0.0488/
&TABL ID='Generic Commercial Link_Floor spray_SPRAY_PATTERN_TABLE', TABLE_DATA=41.3,44.25,0.1,359.9,5.33,0.0548/
&TABL ID='Generic Commercial Link_Floor spray_SPRAY_PATTERN_TABLE', TABLE_DATA=44.25,47.2,0.1,359.9,5.39,0.0592/
&TABL ID='Generic Commercial Link_Floor spray_SPRAY_PATTERN_TABLE', TABLE_DATA=47.2,50.15,0.1,359.9,5.44,0.0646/
&TABL ID='Generic Commercial Link_Floor spray_SPRAY_PATTERN_TABLE', TABLE_DATA=50.15,53.1,0.1,359.9,5.51,0.0675/
&TABL ID='Generic Commercial Link_Floor spray_SPRAY_PATTERN_TABLE', TABLE_DATA=53.1,56.05,0.1,359.9,5.64,0.0692/
&TABL ID='Generic Commercial Link_Floor spray_SPRAY_PATTERN_TABLE', TABLE_DATA=56.05,59.0,0.1,359.9,5.79,0.0701/
! ... 8 like lines cut
&CTRL ID='invert', FUNCTION_TYPE='ALL', LATCH=.FALSE., INITIAL_STATE=.TRUE., INPUT_ID='time_doors'/
&CTRL ID='time_doors', FUNCTION_TYPE='CUSTOM', RAMP_ID='time_doors_RAMP', LATCH=.FALSE., INPUT_ID='TIME'/
&DEVC ID='sprinkler', PROP_ID='Generic Commercial Link_Floor spray', XYZ=10.6,57.4,3.4/
&DEVC ID='sprinkler01', PROP_ID='Generic Commercial Link_Floor spray', XYZ=10.6,53.8,3.4/
&DEVC ID='sprinkler02', PROP_ID='Generic Commercial Link_Floor spray', XYZ=10.6,50.2,3.4/
&DEVC ID='sprinkler03', PROP_ID='Generic Commercial Link_Floor spray', XYZ=10.6,46.6,3.4/
&DEVC ID='sprinkler04', PROP_ID='Generic Commercial Link_Floor spray', XYZ=13.6,57.4,3.4/
&DEVC ID='sprinkler05', PROP_ID='Generic Commercial Link_Floor spray', XYZ=13.6,53.8,3.4/
&DEVC ID='sprinkler06', PROP_ID='Generic Commercial Link_Floor spray', XYZ=13.6,50.2,3.4/
&DEVC ID='sprinkler07', PROP_ID='Generic Commercial Link_Floor spray', XYZ=13.6,46.6,3.4/
&DEVC ID='sprinkler08', PROP_ID='Generic Commercial Link_Floor spray', XYZ=5.4,53.8,3.4/
&DEVC ID='sprinkler09', PROP_ID='Generic Commercial Link_Floor spray', XYZ=5.4,57.4,3.4/
&DEVC ID='sprinkler10', PROP_ID='Generic Commercial Link_Floor spray', XYZ=5.4,50.2,3.4/
&DEVC ID='sprinkler11', PROP_ID='Generic Commercial Link_Floor spray', XYZ=5.4,46.6,3.4/
&DEVC ID='sprinkler12', PROP_ID='Generic Commercial Link_Floor spray', XYZ=5.4,62.6,3.4/
&DEVC ID='sprinkler13', PROP_ID='Generic Commercial Link_Floor spray', XYZ=10.6,62.6,3.4/
&DEVC ID='sprinkler14', PROP_ID='Generic Commercial Link_Floor spray', XYZ=13.6,62.6,3.4/
&DEVC ID='sprinkler15', PROP_ID='Generic Commercial Link_Floor spray', XYZ=13.6,41.4,3.4/
&DEVC ID='sprinkler16', PROP_ID='Generic Commercial Link_Floor spray', XYZ=10.6,41.4,3.4/
&DEVC ID='sprinkler17', PROP_ID='Generic Commercial Link_Floor spray', XYZ=5.4,41.4,3.4/
&DEVC ID='ex5_09', QUANTITY='VISIBILITY', XYZ=25.0,3.0,1.8/
&DEVC ID='ex1_00', QUANTITY='VISIBILITY', XYZ=-1.4,44.8,1.8/
&DEVC ID='ex1_01', QUANTITY='VISIBILITY', XYZ=-1.4,45.0,1.8/
&DEVC ID='ex1_02', QUANTITY='VISIBILITY', XYZ=-1.4,45.2,1.8/
&DEVC ID='ex1_03', QUANTITY='VISIBILITY', XYZ=-1.4,45.4,1.8/
&DEVC ID='ex1_04', QUANTITY='VISIBILITY', XYZ=-1.4,45.6,1.8/
&DEVC ID='ex1_05', QUANTITY='VISIBILITY', XYZ=-1.4,45.8,1.8/
&DEVC ID='ex1_06', QUANTITY='VISIBILITY', XYZ=-1.4,46.0,1.8/
&DEVC ID='ex1_07', QUANTITY='VISIBILITY', XYZ=-1.4,46.2,1.8/
&DEVC ID='ex1_08', QUANTITY='VISIBILITY', XYZ=-1.4,46.4,1.8/
&DEVC ID='ex1_09', QUANTITY='VISIBILITY', XYZ=-1.4,46.6,1.8/
&DEVC ID='ex2_00', QUANTITY='VISIBILITY', XYZ=3.2,10.2,1.8/
&DEVC ID='ex2_01', QUANTITY='VISIBILITY', XYZ=3.4,10.2,1.8/
&DEVC ID='ex2_02', QUANTITY='VISIBILITY', XYZ=3.6,10.2,1.8/
&DEVC ID='ex2_03', QUANTITY='VISIBILITY', XYZ=3.8,10.2,1.8/
&DEVC ID='ex2_04', QUANTITY='VISIBILITY', XYZ=4.0,10.2,1.8/
&DEVC ID='ex2_05', QUANTITY='VISIBILITY', XYZ=4.2,10.2,1.8/
&DEVC ID='ex2_06', QUANTITY='VISIBILITY', XYZ=4.4,10.2,1.8/
&DEVC ID='ex2_07', QUANTITY='VISIBILITY', XYZ=4.6,10.2,1.8/
&DEVC ID='ex2_08', QUANTITY='VISIBILITY', XYZ=4.8,10.2,1.8/
! ... 17 like lines cut
&DEVC ID='ent_00', QUANTITY='VISIBILITY', XYZ=-4.4,61.6,1.8/
&DEVC ID='ent_01', QUANTITY='VISIBILITY', XYZ=-4.0,62.0,1.8/
&DEVC ID='ent_02', QUANTITY='VISIBILITY', XYZ=-3.6,62.4,1.8/
&DEVC ID='ent_03', QUANTITY='VISIBILITY', XYZ=-3.2,62.8,1.8/
&DEVC ID='ent_04', QUANTITY='VISIBILITY', XYZ=-2.8,63.2,1.8/
&DEVC ID='ent_05', QUANTITY='VISIBILITY', XYZ=-2.4,63.6,1.8/
&DEVC ID='ent_06', QUANTITY='VISIBILITY', XYZ=-2.0,64.0,1.8/
&DEVC ID='ent_07', QUANTITY='VISIBILITY', XYZ=-1.6,64.4,1.8/
&DEVC ID='ent_08', QUANTITY='VISIBILITY', XYZ=-1.2,64.8,1.8/
&DEVC ID='ent_09', QUANTITY='VISIBILITY', XYZ=-0.8,65.2,1.8/
&DEVC ID='ent_10', QUANTITY='VISIBILITY', XYZ=-0.4,65.6,1.8/
&DEVC ID='ent_11', QUANTITY='VISIBILITY', XYZ=0.0,66.0,1.8/
&DEVC ID='ent_12', QUANTITY='VISIBILITY', XYZ=0.4,66.4,1.8/
&DEVC ID='ent_13', QUANTITY='VISIBILITY', XYZ=0.8,66.8,1.8/
&DEVC ID='ent_14', QUANTITY='VISIBILITY', XYZ=1.2,67.2,1.8/
&DEVC ID='ent_15', QUANTITY='VISIBILITY', XYZ=1.6,67.6,1.8/
&DEVC ID='ent_16', QUANTITY='VISIBILITY', XYZ=2.0,68.0,1.8/
&DEVC ID='ent_17', QUANTITY='VISIBILITY', XYZ=2.4,68.4,1.8/
&DEVC ID='ent_18', QUANTITY='VISIBILITY', XYZ=2.8,68.8,1.8/
&DEVC ID='ent_19', QUANTITY='VISIBILITY', XYZ=3.2,69.2,1.8/
&DEVC ID='ex5_00', QUANTITY='VISIBILITY', XYZ=23.2,3.0,1.8/
&DEVC ID='ex5_01', QUANTITY='VISIBILITY', XYZ=23.4,3.0,1.8/
&DEVC ID='ex5_02', QUANTITY='VISIBILITY', XYZ=23.6,3.0,1.8/
&DEVC ID='ex5_03', QUANTITY='VISIBILITY', XYZ=23.8,3.0,1.8/
&DEVC ID='ex5_04', QUANTITY='VISIBILITY', XYZ=24.0,3.0,1.8/
&DEVC ID='ex5_05', QUANTITY='VISIBILITY', XYZ=24.2,3.0,1.8/
&DEVC ID='ex5_06', QUANTITY='VISIBILITY', XYZ=24.4,3.0,1.8/
&DEVC ID='ex5_07', QUANTITY='VISIBILITY', XYZ=24.6,3.0,1.8/
&DEVC ID='ex5_08', QUANTITY='VISIBILITY', XYZ=24.8,3.0,1.8/
&DEVC ID='TIMER->OUT', QUANTITY='TIME', XYZ=8.0,44.4,-0.2, SETPOINT=155.0, INITIAL_STATE=.FALSE./
&DEVC ID='TIME', QUANTITY='TIME', XYZ=8.0,44.4,-0.2/

&MATL ID='Plasterboard',
      FYI='[7]B NUREG-1824 – 2007',
      SPECIFIC_HEAT=2.8,
      CONDUCTIVITY=0.147,
      DENSITY=640.0/
&MATL ID='Glass',
      SPECIFIC_HEAT=0.84,
      CONDUCTIVITY=0.76,
      DENSITY=2700.0,
      EMISSIVITY=0.8/

&SURF ID='ADIABATIC',
      COLOR='GRAY 80',
      DEFAULT=.TRUE.,
      ADIABATIC=.TRUE./
&SURF ID='3.75 MW 01',
      COLOR='RED',
      HRRPUA=937.5,
      RAMP_Q='3.75 MW 01_RAMP_Q',
      TMP_FRONT=300.0/
&RAMP ID='3.75 MW 01_RAMP_Q', T=0.0, F=0.0/
&RAMP ID='3.75 MW 01_RAMP_Q', T=5.0, F=1.253333E-3/
&RAMP ID='3.75 MW 01_RAMP_Q', T=10.0, F=5.013333E-3/
&RAMP ID='3.75 MW 01_RAMP_Q', T=15.0, F=0.01128/
&RAMP ID='3.75 MW 01_RAMP_Q', T=20.0, F=0.020053/
&RAMP ID='3.75 MW 01_RAMP_Q', T=25.0, F=0.031333/
&RAMP ID='3.75 MW 01_RAMP_Q', T=30.0, F=0.04512/
&RAMP ID='3.75 MW 01_RAMP_Q', T=35.0, F=0.061413/
&RAMP ID='3.75 MW 01_RAMP_Q', T=40.0, F=0.080213/
&RAMP ID='3.75 MW 01_RAMP_Q', T=45.0, F=0.10152/
&RAMP ID='3.75 MW 01_RAMP_Q', T=50.0, F=0.125333/
&RAMP ID='3.75 MW 01_RAMP_Q', T=55.0, F=0.151653/
&RAMP ID='3.75 MW 01_RAMP_Q', T=60.0, F=0.18048/
&RAMP ID='3.75 MW 01_RAMP_Q', T=65.0, F=0.211813/
&RAMP ID='3.75 MW 01_RAMP_Q', T=70.0, F=0.245653/
&RAMP ID='3.75 MW 01_RAMP_Q', T=75.0, F=0.282/
&RAMP ID='3.75 MW 01_RAMP_Q', T=80.0, F=0.320853/
&RAMP ID='3.75 MW 01_RAMP_Q', T=85.0, F=0.362213/
&RAMP ID='3.75 MW 01_RAMP_Q', T=90.0, F=0.40608/
&RAMP ID='3.75 MW 01_RAMP_Q', T=95.0, F=0.452453/
! ... 162 like lines cut
&SURF ID='3.75 MW 02',
      COLOR='RED',
      HRRPUA=937.5,
      RAMP_Q='3.75 MW 02_RAMP_Q',
      TMP_FRONT=300.0/
&RAMP ID='3.75 MW 02_RAMP_Q', T=0.0, F=0.0/
&RAMP ID='3.75 MW 02_RAMP_Q', T=5.0, F=0.0/
&RAMP ID='3.75 MW 02_RAMP_Q', T=10.0, F=0.0/
&RAMP ID='3.75 MW 02_RAMP_Q', T=15.0, F=0.0/
&RAMP ID='3.75 MW 02_RAMP_Q', T=20.0, F=0.0/
&RAMP ID='3.75 MW 02_RAMP_Q', T=25.0, F=0.0/
&RAMP ID='3.75 MW 02_RAMP_Q', T=30.0, F=0.0/
&RAMP ID='3.75 MW 02_RAMP_Q', T=35.0, F=0.0/
&RAMP ID='3.75 MW 02_RAMP_Q', T=40.0, F=0.0/
&RAMP ID='3.75 MW 02_RAMP_Q', T=45.0, F=0.0/
&RAMP ID='3.75 MW 02_RAMP_Q', T=50.0, F=0.0/
&RAMP ID='3.75 MW 02_RAMP_Q', T=55.0, F=0.0/
&RAMP ID='3.75 MW 02_RAMP_Q', T=60.0, F=0.0/
&RAMP ID='3.75 MW 02_RAMP_Q', T=65.0, F=0.0/
&RAMP ID='3.75 MW 02_RAMP_Q', T=70.0, F=0.0/
&RAMP ID='3.75 MW 02_RAMP_Q', T=75.0, F=0.0/
&RAMP ID='3.75 MW 02_RAMP_Q', T=80.0, F=0.0/
&RAMP ID='3.75 MW 02_RAMP_Q', T=85.0, F=0.0/
&RAMP ID='3.75 MW 02_RAMP_Q', T=90.0, F=0.0/
&RAMP ID='3.75 MW 02_RAMP_Q', T=95.0, F=0.0/
! ... 163 like lines cut
&SURF ID='3.75 MW 03',
      COLOR='RED',
      HRRPUA=937.5,
      RAMP_Q='3.75 MW 03_RAMP_Q',
      TMP_FRONT=300.0/
&RAMP ID='3.75 MW 03_RAMP_Q', T=0.0, F=0.0/
&RAMP ID='3.75 MW 03_RAMP_Q', T=5.0, F=0.0/
&RAMP ID='3.75 MW 03_RAMP_Q', T=10.0, F=0.0/
&RAMP ID='3.75 MW 03_RAMP_Q', T=15.0, F=0.0/
&RAMP ID='3.75 MW 03_RAMP_Q', T=20.0, F=0.0/
&RAMP ID='3.75 MW 03_RAMP_Q', T=25.0, F=0.0/
&RAMP ID='3.75 MW 03_RAMP_Q', T=30.0, F=0.0/
&RAMP ID='3.75 MW 03_RAMP_Q', T=35.0, F=0.0/
&RAMP ID='3.75 MW 03_RAMP_Q', T=40.0, F=0.0/
&RAMP ID='3.75 MW 03_RAMP_Q', T=45.0, F=0.0/
&RAMP ID='3.75 MW 03_RAMP_Q', T=50.0, F=0.0/
&RAMP ID='3.75 MW 03_RAMP_Q', T=55.0, F=0.0/
&RAMP ID='3.75 MW 03_RAMP_Q', T=60.0, F=0.0/
&RAMP ID='3.75 MW 03_RAMP_Q', T=65.0, F=0.0/
&RAMP ID='3.75 MW 03_RAMP_Q', T=70.0, F=0.0/
&RAMP ID='3.75 MW 03_RAMP_Q', T=75.0, F=0.0/
&RAMP ID='3.75 MW 03_RAMP_Q', T=80.0, F=0.0/
&RAMP ID='3.75 MW 03_RAMP_Q', T=85.0, F=0.0/
&RAMP ID='3.75 MW 03_RAMP_Q', T=90.0, F=0.0/
&RAMP ID='3.75 MW 03_RAMP_Q', T=95.0, F=0.0/
! ... 164 like lines cut
&SURF ID='3.75 MW 04',
      COLOR='RED',
      HRRPUA=937.5,
      RAMP_Q='3.75 MW 04_RAMP_Q',
      TMP_FRONT=300.0/
&RAMP ID='3.75 MW 04_RAMP_Q', T=0.0, F=0.0/
&RAMP ID='3.75 MW 04_RAMP_Q', T=5.0, F=0.0/
&RAMP ID='3.75 MW 04_RAMP_Q', T=10.0, F=0.0/
&RAMP ID='3.75 MW 04_RAMP_Q', T=15.0, F=0.0/
&RAMP ID='3.75 MW 04_RAMP_Q', T=20.0, F=0.0/
&RAMP ID='3.75 MW 04_RAMP_Q', T=25.0, F=0.0/
&RAMP ID='3.75 MW 04_RAMP_Q', T=30.0, F=0.0/
&RAMP ID='3.75 MW 04_RAMP_Q', T=35.0, F=0.0/
&RAMP ID='3.75 MW 04_RAMP_Q', T=40.0, F=0.0/
&RAMP ID='3.75 MW 04_RAMP_Q', T=45.0, F=0.0/
&RAMP ID='3.75 MW 04_RAMP_Q', T=50.0, F=0.0/
&RAMP ID='3.75 MW 04_RAMP_Q', T=55.0, F=0.0/
&RAMP ID='3.75 MW 04_RAMP_Q', T=60.0, F=0.0/
&RAMP ID='3.75 MW 04_RAMP_Q', T=65.0, F=0.0/
&RAMP ID='3.75 MW 04_RAMP_Q', T=70.0, F=0.0/
&RAMP ID='3.75 MW 04_RAMP_Q', T=75.0, F=0.0/
&RAMP ID='3.75 MW 04_RAMP_Q', T=80.0, F=0.0/
&RAMP ID='3.75 MW 04_RAMP_Q', T=85.0, F=0.0/
&RAMP ID='3.75 MW 04_RAMP_Q', T=90.0, F=0.0/
&RAMP ID='3.75 MW 04_RAMP_Q', T=95.0, F=0.0/
! ... 164 like lines cut
&SURF ID='Floor',
      COLOR='GRAY 60',
      BACKING='VOID',
      MATL_ID(1,1)='Plasterboard',
      MATL_MASS_FRACTION(1,1)=1.0,
      THICKNESS(1)=0.2,
      THICKNESS=0.2/
&SURF ID='Wall',
      COLOR='GRAY 80',
      BACKING='VOID',
      MATL_ID(1,1)='Plasterboard',
      MATL_MASS_FRACTION(1,1)=1.0,
      THICKNESS(1)=0.2/
&SURF ID='temp partitions',
      RGB=255,175,253,
      MATL_ID(1,1)='Plasterboard',
      MATL_MASS_FRACTION(1,1)=1.0,
      THICKNESS(1)=0.1/
&SURF ID='railings',
      RGB=204,204,255,
      MATL_ID(1,1)='Glass',
      MATL_MASS_FRACTION(1,1)=1.0,
      THICKNESS(1)=0.02/
&SURF ID='downstands',
      RGB=0,204,204,
      MATL_ID(1,1)='Glass',
      MATL_MASS_FRACTION(1,1)=1.0,
      THICKNESS(1)=0.02/
&SURF ID='extract_slit',
      RGB=26,160,28,
      VOLUME_FLOW=0.155,
      RAMP_V='extract_slit_RAMP_V'/
&RAMP ID='extract_slit_RAMP_V', T=0.0, F=0.0/
&RAMP ID='extract_slit_RAMP_V', T=155.0, F=0.0/
&RAMP ID='extract_slit_RAMP_V', T=185.0, F=1.0/
&RAMP ID='extract_slit_RAMP_V', T=900.0, F=1.0/
&SURF ID='extract_vents',
      RGB=26,227,18,
      VOLUME_FLOW=0.664,
      RAMP_V='extract_vents_RAMP_V'/
&RAMP ID='extract_vents_RAMP_V', T=0.0, F=0.0/
&RAMP ID='extract_vents_RAMP_V', T=155.0, F=0.0/
&RAMP ID='extract_vents_RAMP_V', T=185.0, F=1.0/
&RAMP ID='extract_vents_RAMP_V', T=900.0, F=1.0/

&OBST ID='Fire1', XB=11.2,12.2,52.0,53.0,0.0,0.2, SURF_IDS='3.75 MW 01','ADIABATIC','ADIABATIC'/ 
&OBST ID='Fire2', XB=12.2,13.2,52.0,53.0,0.0,0.2, SURF_IDS='3.75 MW 02','ADIABATIC','ADIABATIC'/ 
&OBST ID='Fire3', XB=11.2,12.2,51.0,52.0,0.0,0.2, SURF_IDS='3.75 MW 03','ADIABATIC','ADIABATIC'/ 
&OBST ID='Fire4', XB=12.2,13.2,51.0,52.0,0.0,0.2, SURF_IDS='3.75 MW 04','ADIABATIC','ADIABATIC'/ 
&OBST ID='Obstruction', XB=53.0,53.2,2.6,27.6,0.0,3.6, THICKEN=.TRUE., SURF_ID='Wall'/ 
&OBST ID='Obstruction', XB=19.4,23.0,8.0,8.2,0.0,2.4, SURF_ID='temp partitions'/ 
&OBST ID='Obstruction', XB=22.2,22.4,14.8,27.6,0.0,2.4, SURF_ID='temp partitions'/ 
&OBST ID='Obstruction', XB=18.4,18.6,67.4,76.8,0.0,2.4, SURF_ID='temp partitions'/ 
&OBST ID='Obstruction', XB=-6.8,3.0,16.8,17.0,0.0,2.4, SURF_ID='temp partitions'/ 
&OBST ID='Obstruction', XB=5.0,5.2,4.6,10.0,0.0,3.6, SURF_ID='Wall'/ 
&OBST ID='Obstruction', XB=-6.8,3.0,8.8,9.0,0.0,3.6, SURF_ID='Wall'/ 
&OBST ID='Obstruction', XB=53.0,53.2,-3.0,-0.6,-0.2,2.2, SURF_ID='Wall'/ 
&OBST ID='Obstruction', XB=67.0,69.8,24.4,24.6,-0.2,2.2, SURF_ID='Wall'/ 
&OBST ID='Obstruction', XB=53.2,58.6,27.6,27.8,2.2,3.6, SURF_ID='temp partitions'/ 
&OBST ID='Obstruction', XB=8.0,16.6,44.4,60.0,-0.2,0.0, COLOR='GRAY 94', SURF_ID='Floor'/ 
&OBST ID='Obstruction', XB=-10.4,-6.6,50.0,60.0,-0.2,0.0, SURF_ID='Floor'/ 
&OBST ID='Obstruction', XB=-10.4,-6.6,50.0,60.0,2.2,3.6, SURF_ID='Floor'/ 
&OBST ID='Obstruction', XB=-10.4,-4.6,29.8,35.0,-0.2,0.0, SURF_ID='Floor'/ 
&OBST ID='Obstruction', XB=-10.4,-3.6,46.8,50.0,-0.2,0.0, SURF_ID='Floor'/ 
&OBST ID='Obstruction', XB=-10.4,-3.6,46.8,50.0,2.2,3.6, SURF_ID='Floor'/ 
&OBST ID='Obstruction', XB=-10.4,8.0,35.0,46.8,-0.2,0.0, COLOR='GRAY 94', SURF_ID='Floor'/ 
&OBST ID='Obstruction', XB=-6.6,-6.4,59.8,60.0,0.0,3.6, SURF_ID='Wall'/ 
&OBST ID='Obstruction', XB=-6.6,8.0,50.0,60.0,-0.2,0.0, COLOR='GRAY 94', SURF_ID='Floor'/ 
&OBST ID='Obstruction', XB=-4.6,8.0,29.8,35.0,-0.2,0.0, COLOR='GRAY 94', SURF_ID='Floor'/ 
&OBST ID='Obstruction', XB=-3.6,8.0,46.8,50.0,-0.2,0.0, COLOR='GRAY 94', SURF_ID='Floor'/ 
&OBST ID='Obstruction', XB=16.6,21.0,50.6,51.0,-0.2,1.165734E-15, COLOR='GRAY 94', SURF_ID='Floor'/ 
&OBST ID='Obstruction', XB=16.6,21.2,50.4,50.6,-0.2,1.165734E-15, COLOR='GRAY 94', SURF_ID='Floor'/ 
&OBST ID='Obstruction', XB=16.6,21.2,51.0,51.2,-0.2,1.165734E-15, COLOR='GRAY 94', SURF_ID='Floor'/ 
&OBST ID='Obstruction', XB=16.6,21.4,50.2,50.4,-0.2,1.165734E-15, COLOR='GRAY 94', SURF_ID='Floor'/ 
&OBST ID='Obstruction', XB=16.6,21.4,51.2,51.4,-0.2,1.165734E-15, COLOR='GRAY 94', SURF_ID='Floor'/ 
&OBST ID='Obstruction', XB=16.6,21.6,50.0,50.2,-0.2,1.165734E-15, COLOR='GRAY 94', SURF_ID='Floor'/ 
&OBST ID='Obstruction', XB=16.6,21.6,51.4,51.6,-0.2,1.165734E-15, COLOR='GRAY 94', SURF_ID='Floor'/ 
&OBST ID='Obstruction', XB=16.6,21.8,49.8,50.0,-0.2,1.165734E-15, COLOR='GRAY 94', SURF_ID='Floor'/ 
&OBST ID='Obstruction', XB=16.6,21.8,51.6,51.8,-0.2,1.165734E-15, COLOR='GRAY 94', SURF_ID='Floor'/ 
&OBST ID='Obstruction', XB=16.6,22.0,49.6,49.8,-0.2,1.165734E-15, COLOR='GRAY 94', SURF_ID='Floor'/ 
&OBST ID='Obstruction', XB=16.6,22.0,51.8,52.0,-0.2,1.165734E-15, COLOR='GRAY 94', SURF_ID='Floor'/ 
&OBST ID='Obstruction', XB=16.6,22.2,49.4,49.6,-0.2,1.165734E-15, COLOR='GRAY 94', SURF_ID='Floor'/ 
&OBST ID='Obstruction', XB=16.6,22.2,52.0,52.2,-0.2,1.165734E-15, COLOR='GRAY 94', SURF_ID='Floor'/ 
&OBST ID='Obstruction', XB=16.6,22.4,49.2,49.4,-0.2,1.165734E-15, COLOR='GRAY 94', SURF_ID='Floor'/ 
&OBST ID='Obstruction', XB=16.6,22.4,52.2,52.4,-0.2,1.165734E-15, COLOR='GRAY 94', SURF_ID='Floor'/ 
&OBST ID='Obstruction', XB=16.6,22.6,49.0,49.2,-0.2,1.165734E-15, COLOR='GRAY 94', SURF_ID='Floor'/ 
&OBST ID='Obstruction', XB=16.6,22.6,52.4,52.6,-0.2,1.165734E-15, COLOR='GRAY 94', SURF_ID='Floor'/ 
! ... 13 like lines cut
&OBST ID='Obstruction', XB=16.6,43.6,44.4,60.0,-4.0,-3.8, SURF_ID='Floor'/ 
&OBST ID='Obstruction', XB=16.6,43.6,44.4,46.8,-0.2,1.165734E-15, COLOR='GRAY 94', SURF_ID='Floor'/ 
&OBST ID='Obstruction', XB=16.6,43.6,53.0,60.0,-0.2,1.165734E-15, COLOR='GRAY 94', SURF_ID='Floor'/ 
&OBST ID='Obstruction', XB=21.0,25.4,50.8,51.0,-3.8,1.165734E-15, SURF_ID='INERT'/ 
&OBST ID='Obstruction', XB=21.0,25.6,50.6,50.8,-3.8,1.165734E-15, SURF_ID='INERT'/ 
&OBST ID='Obstruction', XB=21.2,25.2,51.0,51.2,-3.8,1.165734E-15, SURF_ID='INERT'/ 
&OBST ID='Obstruction', XB=21.2,25.8,50.4,50.6,-3.8,1.165734E-15, SURF_ID='INERT'/ 
&OBST ID='Obstruction', XB=21.4,25.0,51.2,51.4,-3.8,1.165734E-15, SURF_ID='INERT'/ 
&OBST ID='Obstruction', XB=21.4,26.0,50.2,50.4,-3.8,1.165734E-15, SURF_ID='INERT'/ 
&OBST ID='Obstruction', XB=21.6,24.8,51.4,51.6,-3.8,1.165734E-15, SURF_ID='INERT'/ 
&OBST ID='Obstruction', XB=21.6,26.2,50.0,50.2,-3.8,1.165734E-15, SURF_ID='INERT'/ 
&OBST ID='Obstruction', XB=21.8,24.6,51.6,51.8,-3.8,1.165734E-15, SURF_ID='INERT'/ 
&OBST ID='Obstruction', XB=21.8,26.4,49.8,50.0,-3.8,1.165734E-15, SURF_ID='INERT'/ 
&OBST ID='Obstruction', XB=22.0,24.4,51.8,52.0,-3.8,1.165734E-15, SURF_ID='INERT'/ 
&OBST ID='Obstruction', XB=22.0,26.6,49.6,49.8,-3.8,1.165734E-15, SURF_ID='INERT'/ 
&OBST ID='Obstruction', XB=22.2,24.2,52.0,52.2,-3.8,1.165734E-15, SURF_ID='INERT'/ 
&OBST ID='Obstruction', XB=22.2,26.8,49.4,49.6,-3.8,1.165734E-15, SURF_ID='INERT'/ 
&OBST ID='Obstruction', XB=22.4,24.0,52.2,52.4,-3.8,1.165734E-15, SURF_ID='INERT'/ 
&OBST ID='Obstruction', XB=22.4,27.0,49.2,49.4,-3.8,1.165734E-15, SURF_ID='INERT'/ 
&OBST ID='Obstruction', XB=22.6,23.8,52.4,52.6,-3.8,1.165734E-15, SURF_ID='INERT'/ 
&OBST ID='Obstruction', XB=22.6,27.2,49.0,49.2,-3.8,1.165734E-15, SURF_ID='INERT'/ 
&OBST ID='Obstruction', XB=22.8,23.6,52.6,52.8,-3.8,1.165734E-15, SURF_ID='INERT'/ 
&OBST ID='Obstruction', XB=22.8,27.0,48.8,49.0,-3.8,1.165734E-15, SURF_ID='INERT'/ 
! ... 4 like lines cut
&OBST ID='Obstruction', XB=23.4,36.4,52.8,53.0,-0.2,1.165734E-15, COLOR='GRAY 94', SURF_ID='Floor'/ 
&OBST ID='Obstruction', XB=23.6,26.2,48.0,48.2,-3.8,1.165734E-15, SURF_ID='INERT'/ 
&OBST ID='Obstruction', XB=23.6,36.2,52.6,52.8,-0.2,1.165734E-15, COLOR='GRAY 94', SURF_ID='Floor'/ 
&OBST ID='Obstruction', XB=23.8,26.0,47.8,48.0,-3.8,1.165734E-15, SURF_ID='INERT'/ 
&OBST ID='Obstruction', XB=23.8,36.0,52.4,52.6,-0.2,1.165734E-15, COLOR='GRAY 94', SURF_ID='Floor'/ 
&OBST ID='Obstruction', XB=24.0,25.8,47.6,47.8,-3.8,1.165734E-15, SURF_ID='INERT'/ 
&OBST ID='Obstruction', XB=24.0,35.8,52.2,52.4,-0.2,1.165734E-15, COLOR='GRAY 94', SURF_ID='Floor'/ 
&OBST ID='Obstruction', XB=24.2,25.6,47.4,47.6,-3.8,1.165734E-15, SURF_ID='INERT'/ 
&OBST ID='Obstruction', XB=24.2,35.6,52.0,52.2,-0.2,1.165734E-15, COLOR='GRAY 94', SURF_ID='Floor'/ 
&OBST ID='Obstruction', XB=24.4,25.4,47.2,47.4,-3.8,1.165734E-15, SURF_ID='INERT'/ 
&OBST ID='Obstruction', XB=24.4,35.4,51.8,52.0,-0.2,1.165734E-15, COLOR='GRAY 94', SURF_ID='Floor'/ 
&OBST ID='Obstruction', XB=24.6,25.2,47.0,47.2,-3.8,1.165734E-15, SURF_ID='INERT'/ 
&OBST ID='Obstruction', XB=24.6,35.2,51.6,51.8,-0.2,1.165734E-15, COLOR='GRAY 94', SURF_ID='Floor'/ 
&OBST ID='Obstruction', XB=24.8,25.0,46.8,47.0,-3.8,1.165734E-15, SURF_ID='INERT'/ 
&OBST ID='Obstruction', XB=24.8,35.0,51.4,51.6,-0.2,1.165734E-15, COLOR='GRAY 94', SURF_ID='Floor'/ 
&OBST ID='Obstruction', XB=25.0,34.8,51.2,51.4,-0.2,1.165734E-15, COLOR='GRAY 94', SURF_ID='Floor'/ 
&OBST ID='Obstruction', XB=25.0,43.6,46.8,47.0,-0.2,1.165734E-15, COLOR='GRAY 94', SURF_ID='Floor'/ 
&OBST ID='Obstruction', XB=25.2,34.6,51.0,51.2,-0.2,1.165734E-15, COLOR='GRAY 94', SURF_ID='Floor'/ 
&OBST ID='Obstruction', XB=25.2,35.0,47.0,47.2,-0.2,1.165734E-15, COLOR='GRAY 94', SURF_ID='Floor'/ 
&OBST ID='Obstruction', XB=25.4,34.4,50.8,51.0,-0.2,1.165734E-15, COLOR='GRAY 94', SURF_ID='Floor'/ 
&OBST ID='Obstruction', XB=25.4,34.8,47.2,47.4,-0.2,1.165734E-15, COLOR='GRAY 94', SURF_ID='Floor'/ 
&OBST ID='Obstruction', XB=25.6,34.2,50.6,50.8,-0.2,1.165734E-15, COLOR='GRAY 94', SURF_ID='Floor'/ 
&OBST ID='Obstruction', XB=25.6,34.6,47.4,47.6,-0.2,1.165734E-15, COLOR='GRAY 94', SURF_ID='Floor'/ 
&OBST ID='Obstruction', XB=25.8,34.0,50.4,50.6,-0.2,1.165734E-15, COLOR='GRAY 94', SURF_ID='Floor'/ 
&OBST ID='Obstruction', XB=25.8,34.4,47.6,47.8,-0.2,1.165734E-15, COLOR='GRAY 94', SURF_ID='Floor'/ 
&OBST ID='Obstruction', XB=26.0,33.8,50.2,50.4,-0.2,1.165734E-15, COLOR='GRAY 94', SURF_ID='Floor'/ 
&OBST ID='Obstruction', XB=26.0,34.2,47.8,48.0,-0.2,1.165734E-15, COLOR='GRAY 94', SURF_ID='Floor'/ 
&OBST ID='Obstruction', XB=26.2,33.6,50.0,50.2,-0.2,1.165734E-15, COLOR='GRAY 94', SURF_ID='Floor'/ 
&OBST ID='Obstruction', XB=26.2,34.0,48.0,48.2,-0.2,1.165734E-15, COLOR='GRAY 94', SURF_ID='Floor'/ 
&OBST ID='Obstruction', XB=26.4,33.4,49.8,50.0,-0.2,1.165734E-15, COLOR='GRAY 94', SURF_ID='Floor'/ 
&OBST ID='Obstruction', XB=26.4,33.8,48.2,48.4,-0.2,1.165734E-15, COLOR='GRAY 94', SURF_ID='Floor'/ 
&OBST ID='Obstruction', XB=26.6,33.2,49.6,49.8,-0.2,1.165734E-15, COLOR='GRAY 94', SURF_ID='Floor'/ 
&OBST ID='Obstruction', XB=26.6,33.6,48.4,48.6,-0.2,1.165734E-15, COLOR='GRAY 94', SURF_ID='Floor'/ 
&OBST ID='Obstruction', XB=26.8,33.0,49.4,49.6,-0.2,1.165734E-15, COLOR='GRAY 94', SURF_ID='Floor'/ 
! ... 4 like lines cut
&OBST ID='Obstruction', XB=32.8,33.0,49.2,49.4,-3.8,-1.6, SURF_ID='INERT'/ 
&OBST ID='Obstruction', XB=32.8,33.0,49.2,49.4,-1.6,-0.2, SURF_ID6='downstands','INERT','INERT','INERT','INERT','INERT'/ 
&OBST ID='Obstruction', XB=32.8,33.0,49.2,49.4,-0.2,1.165734E-15, SURF_ID='INERT'/ 
&OBST ID='Obstruction', XB=33.0,37.2,49.0,49.2,-3.8,1.165734E-15, SURF_ID='INERT'/ 
&OBST ID='Obstruction', XB=33.0,37.4,49.2,49.4,-3.8,1.165734E-15, SURF_ID='INERT'/ 
&OBST ID='Obstruction', XB=33.0,37.6,49.4,49.6,-3.8,1.165734E-15, SURF_ID='INERT'/ 
&OBST ID='Obstruction', XB=33.2,37.0,48.8,49.0,-3.8,1.165734E-15, SURF_ID='INERT'/ 
&OBST ID='Obstruction', XB=33.2,37.8,49.6,49.8,-3.8,1.165734E-15, SURF_ID='INERT'/ 
&OBST ID='Obstruction', XB=33.4,36.8,48.6,48.8,-3.8,1.165734E-15, SURF_ID='INERT'/ 
&OBST ID='Obstruction', XB=33.4,38.0,49.8,50.0,-3.8,1.165734E-15, SURF_ID='INERT'/ 
&OBST ID='Obstruction', XB=33.6,36.6,48.4,48.6,-3.8,1.165734E-15, SURF_ID='INERT'/ 
&OBST ID='Obstruction', XB=33.6,38.2,50.0,50.2,-3.8,1.165734E-15, SURF_ID='INERT'/ 
&OBST ID='Obstruction', XB=33.8,36.4,48.2,48.4,-3.8,1.165734E-15, SURF_ID='INERT'/ 
&OBST ID='Obstruction', XB=33.8,38.4,50.2,50.4,-3.8,1.165734E-15, SURF_ID='INERT'/ 
&OBST ID='Obstruction', XB=34.0,36.2,48.0,48.2,-3.8,1.165734E-15, SURF_ID='INERT'/ 
&OBST ID='Obstruction', XB=34.0,38.6,50.4,50.6,-3.8,1.165734E-15, SURF_ID='INERT'/ 
&OBST ID='Obstruction', XB=34.2,36.0,47.8,48.0,-3.8,1.165734E-15, SURF_ID='INERT'/ 
&OBST ID='Obstruction', XB=34.2,38.8,50.6,50.8,-3.8,1.165734E-15, SURF_ID='INERT'/ 
&OBST ID='Obstruction', XB=34.4,35.8,47.6,47.8,-3.8,1.165734E-15, SURF_ID='INERT'/ 
&OBST ID='Obstruction', XB=34.4,38.8,50.8,51.0,-3.8,1.165734E-15, SURF_ID='INERT'/ 
&OBST ID='Obstruction', XB=34.6,35.6,47.4,47.6,-3.8,1.165734E-15, SURF_ID='INERT'/ 
&OBST ID='Obstruction', XB=34.6,38.6,51.0,51.2,-3.8,1.165734E-15, SURF_ID='INERT'/ 
! ... 5 like lines cut
&OBST ID='Obstruction', XB=35.2,43.6,47.0,47.2,-0.2,1.165734E-15, COLOR='GRAY 94', SURF_ID='Floor'/ 
&OBST ID='Obstruction', XB=35.4,37.8,51.8,52.0,-3.8,1.165734E-15, SURF_ID='INERT'/ 
&OBST ID='Obstruction', XB=35.4,43.6,47.2,47.4,-0.2,1.165734E-15, COLOR='GRAY 94', SURF_ID='Floor'/ 
&OBST ID='Obstruction', XB=35.6,37.6,52.0,52.2,-3.8,1.165734E-15, SURF_ID='INERT'/ 
&OBST ID='Obstruction', XB=35.6,43.6,47.4,47.6,-0.2,1.165734E-15, COLOR='GRAY 94', SURF_ID='Floor'/ 
&OBST ID='Obstruction', XB=35.8,37.2,52.2,52.4,-3.8,1.165734E-15, SURF_ID='INERT'/ 
&OBST ID='Obstruction', XB=35.8,43.6,47.6,47.8,-0.2,1.165734E-15, COLOR='GRAY 94', SURF_ID='Floor'/ 
&OBST ID='Obstruction', XB=36.0,37.0,52.4,52.6,-3.8,1.165734E-15, SURF_ID='INERT'/ 
&OBST ID='Obstruction', XB=36.0,43.6,47.8,48.0,-0.2,1.165734E-15, COLOR='GRAY 94', SURF_ID='Floor'/ 
&OBST ID='Obstruction', XB=36.2,36.8,52.6,52.8,-3.8,1.165734E-15, SURF_ID='INERT'/ 
&OBST ID='Obstruction', XB=36.2,43.6,48.0,48.2,-0.2,1.165734E-15, COLOR='GRAY 94', SURF_ID='Floor'/ 
&OBST ID='Obstruction', XB=36.4,36.6,52.8,53.0,-3.8,1.165734E-15, SURF_ID='INERT'/ 
&OBST ID='Obstruction', XB=36.4,43.6,48.2,48.4,-0.2,1.165734E-15, COLOR='GRAY 94', SURF_ID='Floor'/ 
&OBST ID='Obstruction', XB=36.6,43.6,48.4,48.6,-0.2,1.165734E-15, COLOR='GRAY 94', SURF_ID='Floor'/ 
&OBST ID='Obstruction', XB=36.6,43.6,52.8,53.0,-0.2,1.165734E-15, COLOR='GRAY 94', SURF_ID='Floor'/ 
&OBST ID='Obstruction', XB=36.8,43.6,48.6,48.8,-0.2,1.165734E-15, COLOR='GRAY 94', SURF_ID='Floor'/ 
&OBST ID='Obstruction', XB=36.8,43.6,52.6,52.8,-0.2,1.165734E-15, COLOR='GRAY 94', SURF_ID='Floor'/ 
&OBST ID='Obstruction', XB=37.0,43.6,48.8,49.0,-0.2,1.165734E-15, COLOR='GRAY 94', SURF_ID='Floor'/ 
&OBST ID='Obstruction', XB=37.0,43.6,52.4,52.6,-0.2,1.165734E-15, COLOR='GRAY 94', SURF_ID='Floor'/ 
&OBST ID='Obstruction', XB=37.2,43.6,49.0,49.2,-0.2,1.165734E-15, COLOR='GRAY 94', SURF_ID='Floor'/ 
&OBST ID='Obstruction', XB=37.2,43.6,52.2,52.4,-0.2,1.165734E-15, COLOR='GRAY 94', SURF_ID='Floor'/ 
&OBST ID='Obstruction', XB=37.4,43.6,49.2,49.4,-0.2,1.165734E-15, COLOR='GRAY 94', SURF_ID='Floor'/ 
&OBST ID='Obstruction', XB=37.6,43.6,49.4,49.6,-0.2,1.165734E-15, COLOR='GRAY 94', SURF_ID='Floor'/ 
&OBST ID='Obstruction', XB=37.6,43.6,52.0,52.2,-0.2,1.165734E-15, COLOR='GRAY 94', SURF_ID='Floor'/ 
&OBST ID='Obstruction', XB=37.8,43.6,49.6,49.8,-0.2,1.165734E-15, COLOR='GRAY 94', SURF_ID='Floor'/ 
&OBST ID='Obstruction', XB=37.8,43.6,51.8,52.0,-0.2,1.165734E-15, COLOR='GRAY 94', SURF_ID='Floor'/ 
&OBST ID='Obstruction', XB=38.0,43.6,49.8,50.0,-0.2,1.165734E-15, COLOR='GRAY 94', SURF_ID='Floor'/ 
&OBST ID='Obstruction', XB=38.0,43.6,51.6,51.8,-0.2,1.165734E-15, COLOR='GRAY 94', SURF_ID='Floor'/ 
&OBST ID='Obstruction', XB=38.2,43.6,50.0,50.2,-0.2,1.165734E-15, COLOR='GRAY 94', SURF_ID='Floor'/ 
&OBST ID='Obstruction', XB=38.2,43.6,51.4,51.6,-0.2,1.165734E-15, COLOR='GRAY 94', SURF_ID='Floor'/ 
&OBST ID='Obstruction', XB=38.4,43.6,50.2,50.4,-0.2,1.165734E-15, COLOR='GRAY 94', SURF_ID='Floor'/ 
&OBST ID='Obstruction', XB=38.4,43.6,51.2,51.4,-0.2,1.165734E-15, COLOR='GRAY 94', SURF_ID='Floor'/ 
&OBST ID='Obstruction', XB=38.6,43.6,50.4,50.6,-0.2,1.165734E-15, COLOR='GRAY 94', SURF_ID='Floor'/ 
&OBST ID='Obstruction', XB=38.6,43.6,51.0,51.2,-0.2,1.165734E-15, COLOR='GRAY 94', SURF_ID='Floor'/ 
&OBST ID='Obstruction', XB=38.8,43.6,50.6,51.0,-0.2,1.165734E-15, COLOR='GRAY 94', SURF_ID='Floor'/ 
&OBST ID='Obstruction', XB=18.4,18.6,51.6,51.6,1.165734E-15,1.2, SURF_ID='railings'/ 
&OBST ID='Obstruction', XB=18.4,18.6,54.8,54.8,1.165734E-15,1.2, SURF_ID='railings'/ 
&OBST ID='Obstruction', XB=18.6,18.8,51.4,51.4,1.165734E-15,1.2, SURF_ID='railings'/ 
&OBST ID='Obstruction', XB=18.6,18.8,55.0,55.0,1.165734E-15,1.2, SURF_ID='railings'/ 
&OBST ID='Obstruction', XB=18.8,19.0,51.2,51.2,1.165734E-15,1.2, SURF_ID='railings'/ 
&OBST ID='Obstruction', XB=18.8,19.0,55.2,55.2,1.165734E-15,1.2, SURF_ID='railings'/ 
&OBST ID='Obstruction', XB=19.0,19.2,51.0,51.0,1.165734E-15,1.2, SURF_ID='railings'/ 
&OBST ID='Obstruction', XB=19.0,19.2,55.4,55.4,1.165734E-15,1.2, SURF_ID='railings'/ 
&OBST ID='Obstruction', XB=19.2,19.4,50.8,50.8,1.165734E-15,1.2, SURF_ID='railings'/ 
&OBST ID='Obstruction', XB=19.2,19.4,55.6,55.6,1.165734E-15,1.2, SURF_ID='railings'/ 
&OBST ID='Obstruction', XB=19.4,19.6,50.6,50.6,1.165734E-15,1.2, SURF_ID='railings'/ 
&OBST ID='Obstruction', XB=19.4,19.6,55.8,55.8,1.165734E-15,1.2, SURF_ID='railings'/ 
&OBST ID='Obstruction', XB=19.6,19.8,50.4,50.4,1.165734E-15,1.2, SURF_ID='railings'/ 
&OBST ID='Obstruction', XB=19.6,19.8,56.0,56.0,1.165734E-15,1.2, SURF_ID='railings'/ 
&OBST ID='Obstruction', XB=19.8,20.0,50.2,50.2,1.165734E-15,1.2, SURF_ID='railings'/ 
&OBST ID='Obstruction', XB=19.8,20.0,56.2,56.2,1.165734E-15,1.2, SURF_ID='railings'/ 
&OBST ID='Obstruction', XB=20.0,20.2,50.0,50.0,1.165734E-15,1.2, SURF_ID='railings'/ 
&OBST ID='Obstruction', XB=20.0,20.2,56.4,56.4,1.165734E-15,1.2, SURF_ID='railings'/ 
&OBST ID='Obstruction', XB=20.2,20.4,49.8,49.8,1.165734E-15,1.2, SURF_ID='railings'/ 
&OBST ID='Obstruction', XB=20.2,20.4,56.6,56.6,1.165734E-15,1.2, SURF_ID='railings'/ 
! ... 4 like lines cut
&OBST ID='Obstruction', XB=20.8,21.0,50.8,50.8,-3.8,-0.2, SURF_ID='INERT'/ 
&OBST ID='Obstruction', XB=20.8,21.0,49.2,49.2,1.165734E-15,1.2, SURF_ID='railings'/ 
&OBST ID='Obstruction', XB=20.8,39.6,57.2,57.2,1.165734E-15,1.2, SURF_ID='railings'/ 
&OBST ID='Obstruction', XB=21.0,21.2,49.0,49.0,1.165734E-15,1.2, SURF_ID='railings'/ 
&OBST ID='Obstruction', XB=21.2,21.4,48.8,48.8,1.165734E-15,1.2, SURF_ID='railings'/ 
&OBST ID='Obstruction', XB=21.4,21.6,48.6,48.6,1.165734E-15,1.2, SURF_ID='railings'/ 
&OBST ID='Obstruction', XB=21.6,21.8,48.4,48.4,1.165734E-15,1.2, SURF_ID='railings'/ 
&OBST ID='Obstruction', XB=21.8,22.0,48.2,48.2,1.165734E-15,1.2, SURF_ID='railings'/ 
&OBST ID='Obstruction', XB=22.0,22.2,48.0,48.0,1.165734E-15,1.2, SURF_ID='railings'/ 
&OBST ID='Obstruction', XB=22.2,22.4,47.8,47.8,1.165734E-15,1.2, SURF_ID='railings'/ 
&OBST ID='Obstruction', XB=22.4,22.6,47.6,47.6,1.165734E-15,1.2, SURF_ID='railings'/ 
&OBST ID='Obstruction', XB=22.6,22.8,47.4,47.4,1.165734E-15,1.2, SURF_ID='railings'/ 
&OBST ID='Obstruction', XB=22.8,23.0,47.2,47.2,1.165734E-15,1.2, SURF_ID='railings'/ 
&OBST ID='Obstruction', XB=23.0,23.2,47.0,47.0,1.165734E-15,1.2, SURF_ID='railings'/ 
&OBST ID='Obstruction', XB=23.2,23.4,46.8,46.8,1.165734E-15,1.2, SURF_ID='railings'/ 
&OBST ID='Obstruction', XB=23.4,23.6,46.6,46.6,1.165734E-15,1.2, SURF_ID='railings'/ 
&OBST ID='Obstruction', XB=23.6,23.8,46.4,46.4,1.165734E-15,1.2, SURF_ID='railings'/ 
&OBST ID='Obstruction', XB=23.8,24.0,46.2,46.2,1.165734E-15,1.2, SURF_ID='railings'/ 
&OBST ID='Obstruction', XB=24.0,24.2,46.0,46.0,1.165734E-15,1.2, SURF_ID='railings'/ 
&OBST ID='Obstruction', XB=24.2,24.4,46.2,46.2,1.165734E-15,1.2, SURF_ID='railings'/ 
&OBST ID='Obstruction', XB=24.4,24.6,46.4,46.4,1.165734E-15,1.2, SURF_ID='railings'/ 
&OBST ID='Obstruction', XB=24.6,24.8,46.6,46.6,1.165734E-15,1.2, SURF_ID='railings'/ 
&OBST ID='Obstruction', XB=24.8,25.0,46.8,46.8,1.165734E-15,1.2, SURF_ID='railings'/ 
&OBST ID='Obstruction', XB=27.2,27.4,49.2,49.2,-1.6,-0.2, SURF_ID='downstands'/ 
&OBST ID='Obstruction', XB=27.2,27.4,49.2,49.2,1.165734E-15,1.2, SURF_ID='railings'/ 
&OBST ID='Obstruction', XB=27.4,27.6,49.4,49.4,-1.6,-0.2, SURF_ID='downstands'/ 
&OBST ID='Obstruction', XB=27.4,27.6,49.4,49.4,1.165734E-15,1.2, SURF_ID='railings'/ 
&OBST ID='Obstruction', XB=27.6,27.8,49.6,49.6,-1.6,-0.2, SURF_ID='downstands'/ 
&OBST ID='Obstruction', XB=27.6,27.8,49.6,49.6,1.165734E-15,1.2, SURF_ID='railings'/ 
&OBST ID='Obstruction', XB=27.8,28.0,49.8,49.8,-1.6,-0.2, SURF_ID='downstands'/ 
&OBST ID='Obstruction', XB=27.8,28.0,49.8,49.8,1.165734E-15,1.2, SURF_ID='railings'/ 
&OBST ID='Obstruction', XB=28.0,28.2,50.0,50.0,-1.6,-0.2, SURF_ID='downstands'/ 
&OBST ID='Obstruction', XB=28.0,28.2,50.0,50.0,1.165734E-15,1.2, SURF_ID='railings'/ 
&OBST ID='Obstruction', XB=28.2,32.0,50.2,50.2,-1.6,-0.2, SURF_ID='downstands'/ 
&OBST ID='Obstruction', XB=28.2,32.0,50.2,50.2,1.165734E-15,1.2, SURF_ID='railings'/ 
&OBST ID='Obstruction', XB=32.0,32.2,50.0,50.0,-1.6,-0.2, SURF_ID='downstands'/ 
&OBST ID='Obstruction', XB=32.0,32.2,50.0,50.0,1.165734E-15,1.2, SURF_ID='railings'/ 
&OBST ID='Obstruction', XB=32.2,32.4,49.8,49.8,-1.6,-0.2, SURF_ID='downstands'/ 
&OBST ID='Obstruction', XB=32.2,32.4,49.8,49.8,1.165734E-15,1.2, SURF_ID='railings'/ 
&OBST ID='Obstruction', XB=32.4,32.6,49.6,49.6,-1.6,-0.2, SURF_ID='downstands'/ 
&OBST ID='Obstruction', XB=32.4,32.6,49.6,49.6,1.165734E-15,1.2, SURF_ID='railings'/ 
&OBST ID='Obstruction', XB=32.6,32.8,49.4,49.4,-1.6,-0.2, SURF_ID='downstands'/ 
&OBST ID='Obstruction', XB=32.6,32.8,49.4,49.4,1.165734E-15,1.2, SURF_ID='railings'/ 
&OBST ID='Obstruction', XB=35.0,35.2,47.0,47.0,1.165734E-15,1.2, SURF_ID='railings'/ 
&OBST ID='Obstruction', XB=35.2,35.4,46.8,46.8,1.165734E-15,1.2, SURF_ID='railings'/ 
&OBST ID='Obstruction', XB=35.4,35.6,46.6,46.6,1.165734E-15,1.2, SURF_ID='railings'/ 
&OBST ID='Obstruction', XB=35.6,35.8,46.4,46.4,1.165734E-15,1.2, SURF_ID='railings'/ 
&OBST ID='Obstruction', XB=35.8,36.0,46.2,46.2,1.165734E-15,1.2, SURF_ID='railings'/ 
&OBST ID='Obstruction', XB=36.0,36.2,46.0,46.0,1.165734E-15,1.2, SURF_ID='railings'/ 
&OBST ID='Obstruction', XB=36.2,36.4,46.2,46.2,1.165734E-15,1.2, SURF_ID='railings'/ 
&OBST ID='Obstruction', XB=36.4,36.6,46.4,46.4,1.165734E-15,1.2, SURF_ID='railings'/ 
&OBST ID='Obstruction', XB=36.6,36.8,46.6,46.6,1.165734E-15,1.2, SURF_ID='railings'/ 
&OBST ID='Obstruction', XB=36.8,37.0,46.8,46.8,1.165734E-15,1.2, SURF_ID='railings'/ 
&OBST ID='Obstruction', XB=37.0,37.2,47.0,47.0,1.165734E-15,1.2, SURF_ID='railings'/ 
&OBST ID='Obstruction', XB=37.2,37.4,47.2,47.2,1.165734E-15,1.2, SURF_ID='railings'/ 
&OBST ID='Obstruction', XB=37.4,37.6,47.4,47.4,1.165734E-15,1.2, SURF_ID='railings'/ 
&OBST ID='Obstruction', XB=37.6,37.8,47.6,47.6,1.165734E-15,1.2, SURF_ID='railings'/ 
&OBST ID='Obstruction', XB=37.8,38.0,47.8,47.8,1.165734E-15,1.2, SURF_ID='railings'/ 
&OBST ID='Obstruction', XB=38.0,38.2,48.0,48.0,1.165734E-15,1.2, SURF_ID='railings'/ 
&OBST ID='Obstruction', XB=38.2,38.4,48.2,48.2,1.165734E-15,1.2, SURF_ID='railings'/ 
&OBST ID='Obstruction', XB=38.4,38.6,48.4,48.4,1.165734E-15,1.2, SURF_ID='railings'/ 
&OBST ID='Obstruction', XB=38.6,38.8,48.6,48.6,1.165734E-15,1.2, SURF_ID='railings'/ 
&OBST ID='Obstruction', XB=38.8,39.0,50.8,50.8,-3.8,-0.2, SURF_ID='INERT'/ 
&OBST ID='Obstruction', XB=38.8,39.0,48.8,48.8,1.165734E-15,1.2, SURF_ID='railings'/ 
&OBST ID='Obstruction', XB=39.0,39.2,49.0,49.0,1.165734E-15,1.2, SURF_ID='railings'/ 
&OBST ID='Obstruction', XB=39.2,39.4,49.2,49.2,1.165734E-15,1.2, SURF_ID='railings'/ 
&OBST ID='Obstruction', XB=39.4,39.6,49.4,49.4,1.165734E-15,1.2, SURF_ID='railings'/ 
&OBST ID='Obstruction', XB=39.6,39.8,49.6,49.6,1.165734E-15,1.2, SURF_ID='railings'/ 
&OBST ID='Obstruction', XB=39.6,39.8,57.0,57.0,1.165734E-15,1.2, SURF_ID='railings'/ 
&OBST ID='Obstruction', XB=39.8,40.0,49.8,49.8,1.165734E-15,1.2, SURF_ID='railings'/ 
&OBST ID='Obstruction', XB=39.8,40.0,56.8,56.8,1.165734E-15,1.2, SURF_ID='railings'/ 
&OBST ID='Obstruction', XB=40.0,40.2,50.0,50.0,1.165734E-15,1.2, SURF_ID='railings'/ 
&OBST ID='Obstruction', XB=40.0,40.2,56.6,56.6,1.165734E-15,1.2, SURF_ID='railings'/ 
&OBST ID='Obstruction', XB=40.2,40.4,50.2,50.2,1.165734E-15,1.2, SURF_ID='railings'/ 
&OBST ID='Obstruction', XB=40.2,40.4,56.4,56.4,1.165734E-15,1.2, SURF_ID='railings'/ 
&OBST ID='Obstruction', XB=40.4,40.6,50.4,50.4,1.165734E-15,1.2, SURF_ID='railings'/ 
&OBST ID='Obstruction', XB=40.4,40.6,56.2,56.2,1.165734E-15,1.2, SURF_ID='railings'/ 
&OBST ID='Obstruction', XB=40.6,40.8,50.6,50.6,1.165734E-15,1.2, SURF_ID='railings'/ 
&OBST ID='Obstruction', XB=40.6,40.8,56.0,56.0,1.165734E-15,1.2, SURF_ID='railings'/ 
&OBST ID='Obstruction', XB=40.8,41.0,50.8,50.8,1.165734E-15,1.2, SURF_ID='railings'/ 
&OBST ID='Obstruction', XB=40.8,41.0,55.8,55.8,1.165734E-15,1.2, SURF_ID='railings'/ 
&OBST ID='Obstruction', XB=41.0,41.2,51.0,51.0,1.165734E-15,1.2, SURF_ID='railings'/ 
&OBST ID='Obstruction', XB=41.0,41.2,55.6,55.6,1.165734E-15,1.2, SURF_ID='railings'/ 
! ... 51 like lines cut
&OBST ID='Obstruction', XB=27.4,27.4,49.2,49.4,-1.6,-0.2, SURF_ID='downstands'/ 
&OBST ID='Obstruction', XB=27.4,27.4,49.2,49.4,1.165734E-15,1.2, SURF_ID='railings'/ 
&OBST ID='Obstruction', XB=27.6,27.6,49.4,49.6,-1.6,-0.2, SURF_ID='downstands'/ 
&OBST ID='Obstruction', XB=27.6,27.6,49.4,49.6,1.165734E-15,1.2, SURF_ID='railings'/ 
&OBST ID='Obstruction', XB=27.8,27.8,49.6,49.8,-1.6,-0.2, SURF_ID='downstands'/ 
&OBST ID='Obstruction', XB=27.8,27.8,49.6,49.8,1.165734E-15,1.2, SURF_ID='railings'/ 
&OBST ID='Obstruction', XB=28.0,28.0,49.8,50.0,-1.6,-0.2, SURF_ID='downstands'/ 
&OBST ID='Obstruction', XB=28.0,28.0,49.8,50.0,1.165734E-15,1.2, SURF_ID='railings'/ 
&OBST ID='Obstruction', XB=28.2,28.2,50.0,50.2,-1.6,-0.2, SURF_ID='downstands'/ 
&OBST ID='Obstruction', XB=28.2,28.2,50.0,50.2,1.165734E-15,1.2, SURF_ID='railings'/ 
&OBST ID='Obstruction', XB=32.0,32.0,50.0,50.2,-1.6,-0.2, SURF_ID='downstands'/ 
&OBST ID='Obstruction', XB=32.0,32.0,50.0,50.2,1.165734E-15,1.2, SURF_ID='railings'/ 
&OBST ID='Obstruction', XB=32.2,32.2,49.8,50.0,-1.6,-0.2, SURF_ID='downstands'/ 
&OBST ID='Obstruction', XB=32.2,32.2,49.8,50.0,1.165734E-15,1.2, SURF_ID='railings'/ 
&OBST ID='Obstruction', XB=32.4,32.4,49.6,49.8,-1.6,-0.2, SURF_ID='downstands'/ 
&OBST ID='Obstruction', XB=32.4,32.4,49.6,49.8,1.165734E-15,1.2, SURF_ID='railings'/ 
&OBST ID='Obstruction', XB=32.6,32.6,49.4,49.6,-1.6,-0.2, SURF_ID='downstands'/ 
&OBST ID='Obstruction', XB=32.6,32.6,49.4,49.6,1.165734E-15,1.2, SURF_ID='railings'/ 
&OBST ID='Obstruction', XB=32.8,32.8,49.2,49.4,1.165734E-15,1.2, SURF_ID='railings'/ 
&OBST ID='Obstruction', XB=35.2,35.2,46.8,47.0,1.165734E-15,1.2, SURF_ID='railings'/ 
&OBST ID='Obstruction', XB=35.4,35.4,46.6,46.8,1.165734E-15,1.2, SURF_ID='railings'/ 
&OBST ID='Obstruction', XB=35.6,35.6,46.4,46.6,1.165734E-15,1.2, SURF_ID='railings'/ 
&OBST ID='Obstruction', XB=35.8,35.8,46.2,46.4,1.165734E-15,1.2, SURF_ID='railings'/ 
&OBST ID='Obstruction', XB=36.0,36.0,46.0,46.2,1.165734E-15,1.2, SURF_ID='railings'/ 
&OBST ID='Obstruction', XB=36.2,36.2,46.0,46.2,1.165734E-15,1.2, SURF_ID='railings'/ 
&OBST ID='Obstruction', XB=36.4,36.4,46.2,46.4,1.165734E-15,1.2, SURF_ID='railings'/ 
&OBST ID='Obstruction', XB=36.6,36.6,46.4,46.6,1.165734E-15,1.2, SURF_ID='railings'/ 
&OBST ID='Obstruction', XB=36.8,36.8,46.6,46.8,1.165734E-15,1.2, SURF_ID='railings'/ 
&OBST ID='Obstruction', XB=37.0,37.0,46.8,47.0,1.165734E-15,1.2, SURF_ID='railings'/ 
&OBST ID='Obstruction', XB=37.2,37.2,47.0,47.2,1.165734E-15,1.2, SURF_ID='railings'/ 
&OBST ID='Obstruction', XB=37.4,37.4,47.2,47.4,1.165734E-15,1.2, SURF_ID='railings'/ 
&OBST ID='Obstruction', XB=37.6,37.6,47.4,47.6,1.165734E-15,1.2, SURF_ID='railings'/ 
&OBST ID='Obstruction', XB=37.8,37.8,47.6,47.8,1.165734E-15,1.2, SURF_ID='railings'/ 
&OBST ID='Obstruction', XB=38.0,38.0,47.8,48.0,1.165734E-15,1.2, SURF_ID='railings'/ 
&OBST ID='Obstruction', XB=38.2,38.2,48.0,48.2,1.165734E-15,1.2, SURF_ID='railings'/ 
&OBST ID='Obstruction', XB=38.4,38.4,48.2,48.4,1.165734E-15,1.2, SURF_ID='railings'/ 
&OBST ID='Obstruction', XB=38.6,38.6,48.4,48.6,1.165734E-15,1.2, SURF_ID='railings'/ 
! ... 27 like lines cut
&OBST ID='Obstruction', XB=-10.4,-6.6,60.0,77.0,-0.2,0.0, SURF_ID='Floor'/ 
&OBST ID='Obstruction', XB=-10.4,-6.6,60.0,60.2,2.2,3.6, SURF_ID='Floor'/ 
&OBST ID='Obstruction', XB=-10.4,-6.2,60.2,60.4,2.2,3.6, SURF_ID='Floor'/ 
&OBST ID='Obstruction', XB=-10.4,-6.0,60.4,60.6,2.2,3.6, SURF_ID='Floor'/ 
&OBST ID='Obstruction', XB=-10.4,-5.8,60.6,60.8,2.2,3.6, SURF_ID='Floor'/ 
&OBST ID='Obstruction', XB=-10.4,-5.6,60.8,61.0,2.2,3.6, SURF_ID='Floor'/ 
&OBST ID='Obstruction', XB=-10.4,-5.4,61.0,61.2,2.2,3.6, SURF_ID='Floor'/ 
&OBST ID='Obstruction', XB=-10.4,-5.2,61.2,61.4,2.2,3.6, SURF_ID='Floor'/ 
&OBST ID='Obstruction', XB=-10.4,-5.0,61.4,61.6,2.2,3.6, SURF_ID='Floor'/ 
&OBST ID='Obstruction', XB=-10.4,-4.8,61.6,61.8,2.2,3.6, SURF_ID='Floor'/ 
&OBST ID='Obstruction', XB=-10.4,-4.6,61.8,62.0,2.2,3.6, SURF_ID='Floor'/ 
&OBST ID='Obstruction', XB=-10.4,-4.4,62.0,62.2,2.2,3.6, SURF_ID='Floor'/ 
&OBST ID='Obstruction', XB=-10.4,-4.2,62.2,62.4,2.2,3.6, SURF_ID='Floor'/ 
&OBST ID='Obstruction', XB=-10.4,-4.0,62.4,62.6,2.2,3.6, SURF_ID='Floor'/ 
&OBST ID='Obstruction', XB=-10.4,-3.8,62.6,62.8,2.2,3.6, SURF_ID='Floor'/ 
&OBST ID='Obstruction', XB=-10.4,-3.6,62.8,63.0,2.2,3.6, SURF_ID='Floor'/ 
&OBST ID='Obstruction', XB=-10.4,-3.4,63.0,63.2,2.2,3.6, SURF_ID='Floor'/ 
&OBST ID='Obstruction', XB=-10.4,-3.2,63.2,63.4,2.2,3.6, SURF_ID='Floor'/ 
&OBST ID='Obstruction', XB=-10.4,-3.0,63.4,63.6,2.2,3.6, SURF_ID='Floor'/ 
&OBST ID='Obstruction', XB=-10.4,-2.8,63.6,63.8,2.2,3.6, SURF_ID='Floor'/ 
! ... 66 like lines cut
&OBST ID='Obstruction', XB=-6.6,-6.4,60.0,60.2,2.2,3.6, SURF_ID6='Floor','Floor','Wall','Floor','Floor','Floor'/ 
&OBST ID='Obstruction', XB=-6.6,29.0,69.6,77.0,-0.2,0.0, COLOR='GRAY 94', SURF_ID='Floor'/ 
&OBST ID='Obstruction', XB=-6.6,32.0,60.0,69.6,-0.2,0.0, COLOR='GRAY 94', SURF_ID='Floor'/ 
&OBST ID='Obstruction', XB=-6.4,-6.2,60.0,60.2,0.0,3.6, SURF_ID='Wall'/ 
&OBST ID='Obstruction', XB=-6.2,-6.0,60.2,60.4,0.0,3.6, SURF_ID='Wall'/ 
&OBST ID='Obstruction', XB=-6.0,-5.8,60.4,60.6,0.0,3.6, SURF_ID='Wall'/ 
&OBST ID='Obstruction', XB=-5.8,-5.6,60.6,60.8,0.0,3.6, SURF_ID='Wall'/ 
&OBST ID='Obstruction', XB=-5.6,-5.4,60.8,61.0,0.0,3.6, SURF_ID='Wall'/ 
&OBST ID='Obstruction', XB=-5.4,-5.2,61.0,61.2,0.0,3.6, SURF_ID='Wall'/ 
&OBST ID='Obstruction', XB=-5.2,-5.0,61.2,61.4,0.0,3.6, SURF_ID='Wall'/ 
&OBST ID='Obstruction', XB=-5.0,-4.8,61.4,61.6,0.0,3.6, SURF_ID='Wall'/ 
&OBST ID='Obstruction', XB=-4.8,-4.6,61.4,61.6,3.4,3.6, SURF_IDS='ADIABATIC','ADIABATIC','extract_slit'/ 
&OBST ID='Obstruction', XB=-4.8,-4.4,61.6,61.8,3.4,3.6, SURF_IDS='ADIABATIC','ADIABATIC','extract_slit'/ 
&OBST ID='Obstruction', XB=-4.6,-4.2,61.8,62.0,3.4,3.6, SURF_IDS='ADIABATIC','ADIABATIC','extract_slit'/ 
&OBST ID='Obstruction', XB=-4.4,-4.0,62.0,62.2,3.4,3.6, SURF_IDS='ADIABATIC','ADIABATIC','extract_slit'/ 
&OBST ID='Obstruction', XB=-4.2,-3.8,62.2,62.4,3.4,3.6, SURF_IDS='ADIABATIC','ADIABATIC','extract_slit'/ 
&OBST ID='Obstruction', XB=-4.0,-3.6,62.4,62.6,3.4,3.6, SURF_IDS='ADIABATIC','ADIABATIC','extract_slit'/ 
&OBST ID='Obstruction', XB=-3.8,-3.4,62.6,62.8,3.4,3.6, SURF_IDS='ADIABATIC','ADIABATIC','extract_slit'/ 
&OBST ID='Obstruction', XB=-3.6,-3.2,62.8,63.0,3.4,3.6, SURF_IDS='ADIABATIC','ADIABATIC','extract_slit'/ 
&OBST ID='Obstruction', XB=-3.4,-3.0,63.0,63.2,3.4,3.6, SURF_IDS='ADIABATIC','ADIABATIC','extract_slit'/ 
&OBST ID='Obstruction', XB=-3.2,-2.8,63.2,63.4,3.4,3.6, SURF_IDS='ADIABATIC','ADIABATIC','extract_slit'/ 
&OBST ID='Obstruction', XB=-3.0,-2.6,63.4,63.6,3.4,3.6, SURF_IDS='ADIABATIC','ADIABATIC','extract_slit'/ 
&OBST ID='Obstruction', XB=-2.8,-2.4,63.6,63.8,3.4,3.6, SURF_IDS='ADIABATIC','ADIABATIC','extract_slit'/ 
&OBST ID='Obstruction', XB=-2.6,-2.2,63.8,64.0,3.4,3.6, SURF_IDS='ADIABATIC','ADIABATIC','extract_slit'/ 
&OBST ID='Obstruction', XB=-2.4,-2.0,64.0,64.2,3.4,3.6, SURF_IDS='ADIABATIC','ADIABATIC','extract_slit'/ 
&OBST ID='Obstruction', XB=-2.2,-1.8,64.2,64.4,3.4,3.6, SURF_IDS='ADIABATIC','ADIABATIC','extract_slit'/ 
&OBST ID='Obstruction', XB=-2.0,-1.6,64.4,64.6,3.4,3.6, SURF_IDS='ADIABATIC','ADIABATIC','extract_slit'/ 
&OBST ID='Obstruction', XB=-1.8,-1.4,64.6,64.8,3.4,3.6, SURF_IDS='ADIABATIC','ADIABATIC','extract_slit'/ 
&OBST ID='Obstruction', XB=-1.6,-1.2,64.8,65.0,3.4,3.6, SURF_IDS='ADIABATIC','ADIABATIC','extract_slit'/ 
&OBST ID='Obstruction', XB=-1.4,-1.0,65.0,65.2,3.4,3.6, SURF_IDS='ADIABATIC','ADIABATIC','extract_slit'/ 
&OBST ID='Obstruction', XB=-1.2,-0.8,65.2,65.4,3.4,3.6, SURF_IDS='ADIABATIC','ADIABATIC','extract_slit'/ 
! ... 21 like lines cut
&OBST ID='Obstruction', XB=-6.6,-6.4,60.0,60.0,0.0,2.2, SURF_ID='Wall'/ 
&OBST ID='Obstruction', XB=-4.8,-4.6,61.6,61.6,0.0,3.4, SURF_ID='Wall'/ 
&OBST ID='Obstruction', XB=10.4,10.6,77.0,77.0,2.2,3.6, SURF_ID='Floor'/ 
&OBST ID='Obstruction', XB=8.0,43.6,29.8,44.4,-0.2,0.0, COLOR='GRAY 94', SURF_ID='Floor'/ 
&OBST ID='Obstruction', XB=43.6,60.8,29.8,46.8,-0.2,0.0, COLOR='GRAY 94', SURF_ID='Floor'/ 
&OBST ID='Obstruction', XB=43.6,60.8,49.0,60.0,-0.2,0.0, COLOR='GRAY 94', SURF_ID='Floor'/ 
&OBST ID='Obstruction', XB=43.6,67.0,46.8,49.0,-0.2,0.0, COLOR='GRAY 94', SURF_ID='Floor'/ 
&OBST ID='Obstruction', XB=65.0,67.0,44.0,46.8,-0.2,0.0, COLOR='GRAY 94', SURF_ID='Floor'/ 
&OBST ID='Obstruction', XB=65.0,69.8,42.0,44.0,-0.2,0.0, COLOR='GRAY 94', SURF_ID='Floor'/ 
&OBST ID='Obstruction', XB=65.6,67.0,49.0,59.0,-0.2,0.0, COLOR='GRAY 94', SURF_ID='Floor'/ 
&OBST ID='Obstruction', XB=67.8,69.8,31.4,42.0,-0.2,0.0, COLOR='GRAY 94', SURF_ID='Floor'/ 
&OBST ID='Obstruction', XB=32.0,60.8,60.0,69.6,-0.2,0.0, COLOR='GRAY 94', SURF_ID='Floor'/ 
&OBST ID='Obstruction', XB=34.4,50.4,74.0,77.0,-0.2,0.0, COLOR='GRAY 94', SURF_ID='Floor'/ 
&OBST ID='Obstruction', XB=34.4,60.8,72.2,74.0,-0.2,0.0, COLOR='GRAY 94', SURF_ID='Floor'/ 
&OBST ID='Obstruction', XB=36.0,60.8,69.6,72.2,-0.2,0.0, COLOR='GRAY 94', SURF_ID='Floor'/ 
&OBST ID='Obstruction', XB=-10.4,-6.8,-3.0,24.4,-0.2,0.0, SURF_ID='Floor'/ 
&OBST ID='Obstruction', XB=-10.4,-4.6,24.4,29.8,-0.2,0.0, SURF_ID='Floor'/ 
&OBST ID='Obstruction', XB=-6.8,-3.941292E-15,-3.0,2.775558E-16,-0.2,0.0, COLOR='GRAY 94', SURF_ID='Floor'/ 
&OBST ID='Obstruction', XB=-6.8,5.2,2.775558E-16,4.4,-0.2,0.0, COLOR='GRAY 94', SURF_ID='Floor'/ 
&OBST ID='Obstruction', XB=-6.8,17.4,4.4,24.4,-0.2,0.0, COLOR='GRAY 94', SURF_ID='Floor'/ 
&OBST ID='Obstruction', XB=-6.6,-3.941292E-15,2.4,2.6,0.0,3.6, SURF_ID='Wall'/ 
&OBST ID='Obstruction', XB=-4.6,-4.4,20.0,24.2,0.0,2.4, SURF_ID='temp partitions'/ 
&OBST ID='Obstruction', XB=-4.6,3.0,19.8,20.0,0.0,2.4, SURF_ID='temp partitions'/ 
&OBST ID='Obstruction', XB=-4.6,17.4,24.4,29.8,-0.2,0.0, COLOR='GRAY 94', SURF_ID='Floor'/ 
&OBST ID='Obstruction', XB=-0.2,-3.941292E-15,2.0,2.4,0.0,3.6, SURF_ID='Wall'/ 
&OBST ID='Obstruction', XB=-0.2,-3.941292E-15,2.6,4.6,0.0,3.6, SURF_ID='Wall'/ 
&OBST ID='Obstruction', XB=-0.2,-3.941292E-15,0.2,2.0,2.2,3.6, SURF_ID='Wall'/ 
&OBST ID='Obstruction', XB=-0.2,3.2,4.6,4.8,0.0,3.6, SURF_ID='Wall'/ 
&OBST ID='Obstruction', XB=3.0,3.2,4.8,10.0,0.0,3.6, SURF_ID='Wall'/ 
&OBST ID='Obstruction', XB=11.4,11.6,4.6,8.4,0.0,2.4, SURF_ID='temp partitions'/ 
&OBST ID='Obstruction', XB=11.4,13.6,8.4,8.6,0.0,2.4, SURF_ID='temp partitions'/ 
&OBST ID='Obstruction', XB=11.4,17.4,3.4,4.4,-0.2,0.0, COLOR='GRAY 94', SURF_ID='Floor'/ 
&OBST ID='Obstruction', XB=13.8,17.4,1.8,3.4,-0.2,0.0, COLOR='GRAY 94', SURF_ID='Floor'/ 
&OBST ID='Obstruction', XB=17.4,22.8,4.4,4.6,-0.2,0.0, COLOR='GRAY 94', SURF_ID='Floor'/ 
&OBST ID='Obstruction', XB=17.4,25.4,1.8,2.6,-0.2,0.0, COLOR='GRAY 94', SURF_ID='Floor'/ 
&OBST ID='Obstruction', XB=17.4,43.6,2.6,4.4,-0.2,0.0, COLOR='GRAY 94', SURF_ID='Floor'/ 
&OBST ID='Obstruction', XB=17.4,43.6,4.6,29.8,-0.2,0.0, COLOR='GRAY 94', SURF_ID='Floor'/ 
&OBST ID='Obstruction', XB=19.4,19.6,4.6,11.2,0.0,2.4, SURF_ID='temp partitions'/ 
&OBST ID='Obstruction', XB=19.4,22.8,4.4,4.6,0.0,2.4, SURF_ID='temp partitions'/ 
&OBST ID='Obstruction', XB=19.4,23.0,11.2,11.4,0.0,2.4, SURF_ID='temp partitions'/ 
&OBST ID='Obstruction', XB=22.8,23.0,4.4,4.6,-0.2,0.0, COLOR='GRAY 94', SURF_IDS='temp partitions','Floor','Floor'/ 
&OBST ID='Obstruction', XB=22.8,23.0,2.0,4.4,0.0,2.4, SURF_ID='temp partitions'/ 
&OBST ID='Obstruction', XB=22.8,23.0,4.6,11.2,0.0,2.4, SURF_ID='temp partitions'/ 
&OBST ID='Obstruction', XB=22.8,25.4,-0.8,1.8,-0.2,0.0, COLOR='GRAY 94', SURF_ID='Floor'/ 
&OBST ID='Obstruction', XB=22.8,35.4,-3.0,-0.8,-0.2,0.0, COLOR='GRAY 94', SURF_ID='Floor'/ 
&OBST ID='Obstruction', XB=23.0,43.6,4.4,4.6,-0.2,0.0, COLOR='GRAY 94', SURF_ID='Floor'/ 
&OBST ID='Obstruction', XB=22.8,23.0,4.4,4.6,2.4,2.4, SURF_ID='temp partitions'/ 
&OBST ID='Obstruction', XB=23.0,23.0,4.4,4.6,0.0,2.4, SURF_ID='temp partitions'/ 
&OBST ID='Obstruction', XB=43.6,58.8,24.6,27.6,-0.2,0.0, COLOR='GRAY 94', SURF_ID='Floor'/ 
&OBST ID='Obstruction', XB=43.6,60.8,27.6,29.8,-0.2,0.0, COLOR='GRAY 94', SURF_ID='Floor'/ 
&OBST ID='Obstruction', XB=43.6,61.0,2.6,2.8,-0.2,0.0, COLOR='GRAY 94', SURF_ID='Floor'/ 
&OBST ID='Obstruction', XB=43.6,61.2,2.8,3.0,-0.2,0.0, COLOR='GRAY 94', SURF_ID='Floor'/ 
&OBST ID='Obstruction', XB=43.6,61.4,3.0,3.2,-0.2,0.0, COLOR='GRAY 94', SURF_ID='Floor'/ 
&OBST ID='Obstruction', XB=43.6,61.6,3.2,3.4,-0.2,0.0, COLOR='GRAY 94', SURF_ID='Floor'/ 
&OBST ID='Obstruction', XB=43.6,61.8,3.4,3.6,-0.2,0.0, COLOR='GRAY 94', SURF_ID='Floor'/ 
&OBST ID='Obstruction', XB=43.6,62.0,3.6,3.8,-0.2,0.0, COLOR='GRAY 94', SURF_ID='Floor'/ 
&OBST ID='Obstruction', XB=43.6,62.2,3.8,4.0,-0.2,0.0, COLOR='GRAY 94', SURF_ID='Floor'/ 
&OBST ID='Obstruction', XB=43.6,62.4,4.0,4.4,-0.2,0.0, COLOR='GRAY 94', SURF_ID='Floor'/ 
&OBST ID='Obstruction', XB=43.6,62.6,4.4,4.6,-0.2,0.0, COLOR='GRAY 94', SURF_ID='Floor'/ 
&OBST ID='Obstruction', XB=43.6,62.8,4.6,4.8,-0.2,0.0, COLOR='GRAY 94', SURF_ID='Floor'/ 
&OBST ID='Obstruction', XB=43.6,63.0,4.8,5.0,-0.2,0.0, COLOR='GRAY 94', SURF_ID='Floor'/ 
&OBST ID='Obstruction', XB=43.6,63.2,5.0,5.2,-0.2,0.0, COLOR='GRAY 94', SURF_ID='Floor'/ 
&OBST ID='Obstruction', XB=43.6,63.4,5.2,5.4,-0.2,0.0, COLOR='GRAY 94', SURF_ID='Floor'/ 
&OBST ID='Obstruction', XB=43.6,63.6,5.4,5.6,-0.2,0.0, COLOR='GRAY 94', SURF_ID='Floor'/ 
&OBST ID='Obstruction', XB=43.6,63.8,5.6,5.8,-0.2,0.0, COLOR='GRAY 94', SURF_ID='Floor'/ 
&OBST ID='Obstruction', XB=43.6,64.0,5.8,6.0,-0.2,0.0, COLOR='GRAY 94', SURF_ID='Floor'/ 
&OBST ID='Obstruction', XB=43.6,64.2,6.0,6.2,-0.2,0.0, COLOR='GRAY 94', SURF_ID='Floor'/ 
&OBST ID='Obstruction', XB=43.6,64.4,6.2,6.4,-0.2,0.0, COLOR='GRAY 94', SURF_ID='Floor'/ 
! ... 29 like lines cut
&OBST ID='Obstruction', XB=57.8,58.0,-0.4,-0.4,0.0,1.4, SURF_ID='railings'/ 
&OBST ID='Obstruction', XB=58.0,58.2,-0.2,-0.2,0.0,1.4, SURF_ID='railings'/ 
&OBST ID='Obstruction', XB=58.2,58.4,2.775558E-16,2.775558E-16,0.0,1.4, SURF_ID='railings'/ 
&OBST ID='Obstruction', XB=58.4,58.6,0.2,0.2,0.0,1.4, SURF_ID='railings'/ 
&OBST ID='Obstruction', XB=58.6,58.8,0.4,0.4,0.0,1.4, SURF_ID='railings'/ 
&OBST ID='Obstruction', XB=58.8,59.0,0.6,0.6,0.0,1.4, SURF_ID='railings'/ 
&OBST ID='Obstruction', XB=59.0,59.2,0.8,0.8,0.0,1.4, SURF_ID='railings'/ 
&OBST ID='Obstruction', XB=59.2,59.4,1.0,1.0,0.0,1.4, SURF_ID='railings'/ 
&OBST ID='Obstruction', XB=59.4,59.6,1.2,1.2,0.0,1.4, SURF_ID='railings'/ 
&OBST ID='Obstruction', XB=59.6,59.8,1.4,1.4,0.0,1.4, SURF_ID='railings'/ 
&OBST ID='Obstruction', XB=59.8,60.0,1.6,1.6,0.0,1.4, SURF_ID='railings'/ 
&OBST ID='Obstruction', XB=60.0,60.2,1.8,1.8,0.0,1.4, SURF_ID='railings'/ 
&OBST ID='Obstruction', XB=60.2,60.4,2.0,2.0,0.0,1.4, SURF_ID='railings'/ 
&OBST ID='Obstruction', XB=60.4,60.6,2.2,2.2,0.0,1.4, SURF_ID='railings'/ 
&OBST ID='Obstruction', XB=60.6,60.8,2.4,2.4,0.0,1.4, SURF_ID='railings'/ 
&OBST ID='Obstruction', XB=60.8,61.0,2.6,2.6,0.0,1.4, SURF_ID='railings'/ 
&OBST ID='Obstruction', XB=61.0,61.2,2.8,2.8,0.0,1.4, SURF_ID='railings'/ 
&OBST ID='Obstruction', XB=61.2,61.4,3.0,3.0,0.0,1.4, SURF_ID='railings'/ 
&OBST ID='Obstruction', XB=61.4,61.6,3.2,3.2,0.0,1.4, SURF_ID='railings'/ 
&OBST ID='Obstruction', XB=61.6,61.8,3.4,3.4,0.0,1.4, SURF_ID='railings'/ 
! ... 73 like lines cut
&OBST ID='Obstruction', XB=60.8,65.0,42.0,46.8,2.2,3.8, SURF_ID='Floor'/ 
&OBST ID='Obstruction', XB=60.8,67.8,31.4,42.0,2.2,3.8, SURF_ID='Floor'/ 
&OBST ID='Obstruction', XB=60.8,69.8,29.8,31.4,2.2,3.8, SURF_ID='Floor'/ 
&OBST ID='Obstruction', XB=25.4,43.6,-0.8,2.6,2.2,3.8, SURF_ID='Floor'/ 
&OBST ID='Obstruction', XB=35.4,43.6,-3.0,-0.8,2.2,3.8, SURF_ID='Floor'/ 
&OBST ID='Obstruction', XB=43.6,53.0,-0.6,2.6,2.2,3.8, SURF_ID='Floor'/ 
&OBST ID='Obstruction', XB=43.6,69.8,-3.0,-0.6,2.2,3.8, SURF_ID='Floor'/ 
&OBST ID='Obstruction', XB=57.8,69.8,-0.6,-0.4,2.2,3.8, SURF_ID='Floor'/ 
&OBST ID='Obstruction', XB=58.0,69.8,-0.4,-0.2,2.2,3.8, SURF_ID='Floor'/ 
&OBST ID='Obstruction', XB=58.2,69.8,-0.2,2.775558E-16,2.2,3.8, SURF_ID='Floor'/ 
&OBST ID='Obstruction', XB=58.4,69.8,2.775558E-16,0.2,2.2,3.8, SURF_ID='Floor'/ 
&OBST ID='Obstruction', XB=58.6,69.8,0.2,0.4,2.2,3.8, SURF_ID='Floor'/ 
&OBST ID='Obstruction', XB=58.8,69.8,0.4,0.6,2.2,3.8, SURF_ID='Floor'/ 
&OBST ID='Obstruction', XB=58.8,69.8,24.6,27.6,2.2,3.8, SURF_ID='Floor'/ 
&OBST ID='Obstruction', XB=59.0,69.8,0.6,0.8,2.2,3.8, SURF_ID='Floor'/ 
&OBST ID='Obstruction', XB=59.2,69.8,0.8,1.0,2.2,3.8, SURF_ID='Floor'/ 
&OBST ID='Obstruction', XB=59.4,69.8,1.0,1.2,2.2,3.8, SURF_ID='Floor'/ 
&OBST ID='Obstruction', XB=59.6,69.8,1.2,1.4,2.2,3.8, SURF_ID='Floor'/ 
&OBST ID='Obstruction', XB=59.8,69.8,1.4,1.6,2.2,3.8, SURF_ID='Floor'/ 
&OBST ID='Obstruction', XB=60.0,69.8,1.6,1.8,2.2,3.8, SURF_ID='Floor'/ 
! ... 36 like lines cut
&OBST ID='Obstruction', XB=23.4,23.6,46.0,53.4,3.8,4.6, SURF_ID='Wall'/ 
&OBST ID='Obstruction', XB=23.4,33.8,45.8,46.0,3.8,4.6, SURF_ID='Wall'/ 
&OBST ID='Obstruction', XB=23.4,33.8,53.4,53.6,3.8,4.6, SURF_ID='Wall'/ 
&OBST ID='Obstruction', XB=33.6,33.8,46.0,53.4,3.8,4.6, SURF_ID='Wall'/ 
&OBST ID='Obstruction', XB=23.4,23.6,46.0,53.4,4.6,8.990909, SURF_ID='Wall'/ 
&OBST ID='Obstruction', XB=23.4,33.8,45.8,46.0,4.6,8.990909, SURF_ID='Wall'/ 
&OBST ID='Obstruction', XB=23.4,33.8,53.4,53.6,4.6,8.990909, SURF_ID='Wall'/ 
&OBST ID='Obstruction', XB=23.4,33.8,45.8,53.6,8.990909,9.2, SURF_ID='Floor'/ 
&OBST ID='Obstruction', XB=33.6,33.8,46.0,53.4,4.6,8.990909, SURF_ID='Wall'/ 
&OBST ID='Obstruction', XB=60.6,60.8,47.0,48.8,2.2,3.6, SURF_ID='Wall'/ 
&OBST ID='Obstruction', XB=3.0,3.2,69.4,69.6,0.0,3.6, THICKEN=.TRUE., SURF_ID='Wall'/ 
&OBST ID='Obstruction', XB=3.2,3.4,69.6,69.8,0.0,3.6, THICKEN=.TRUE., SURF_ID='Wall'/ 
&OBST ID='Obstruction', XB=3.4,3.6,69.8,70.0,0.0,3.6, THICKEN=.TRUE., SURF_ID='Wall'/ 
&OBST ID='Obstruction', XB=3.6,3.8,70.0,70.2,0.0,3.6, THICKEN=.TRUE., SURF_ID='Wall'/ 
&OBST ID='Obstruction', XB=3.8,4.0,70.2,70.4,0.0,3.6, THICKEN=.TRUE., SURF_ID='Wall'/ 
&OBST ID='Obstruction', XB=4.0,4.2,70.4,70.6,0.0,3.6, THICKEN=.TRUE., SURF_ID='Wall'/ 
&OBST ID='Obstruction', XB=4.2,4.4,70.6,70.8,0.0,3.6, THICKEN=.TRUE., SURF_ID='Wall'/ 
&OBST ID='Obstruction', XB=4.4,4.6,70.8,71.0,0.0,3.6, THICKEN=.TRUE., SURF_ID='Wall'/ 
&OBST ID='Obstruction', XB=4.6,4.8,71.0,71.2,0.0,3.6, THICKEN=.TRUE., SURF_ID='Wall'/ 
&OBST ID='Obstruction', XB=4.8,5.0,71.2,71.4,0.0,3.6, THICKEN=.TRUE., SURF_ID='Wall'/ 
&OBST ID='Obstruction', XB=5.0,5.2,71.4,71.6,0.0,3.6, THICKEN=.TRUE., SURF_ID='Wall'/ 
&OBST ID='Obstruction', XB=5.2,5.4,71.6,71.8,0.0,3.6, THICKEN=.TRUE., SURF_ID='Wall'/ 
&OBST ID='Obstruction', XB=5.4,5.6,71.8,72.0,0.0,3.6, THICKEN=.TRUE., SURF_ID='Wall'/ 
&OBST ID='Obstruction', XB=5.6,5.8,72.0,72.2,0.0,3.6, THICKEN=.TRUE., SURF_ID='Wall'/ 
&OBST ID='Obstruction', XB=5.8,6.0,72.2,72.4,0.0,3.6, THICKEN=.TRUE., SURF_ID='Wall'/ 
&OBST ID='Obstruction', XB=6.0,6.2,72.4,72.6,0.0,3.6, THICKEN=.TRUE., SURF_ID='Wall'/ 
&OBST ID='Obstruction', XB=6.2,6.4,72.6,72.8,0.0,3.6, THICKEN=.TRUE., SURF_ID='Wall'/ 
&OBST ID='Obstruction', XB=6.4,6.6,72.8,73.0,0.0,3.6, THICKEN=.TRUE., SURF_ID='Wall'/ 
&OBST ID='Obstruction', XB=6.6,6.8,73.0,73.2,0.0,3.6, THICKEN=.TRUE., SURF_ID='Wall'/ 
&OBST ID='Obstruction', XB=6.8,7.0,73.2,73.4,0.0,3.6, THICKEN=.TRUE., SURF_ID='Wall'/ 
! ... 84 like lines cut
&OBST ID='Obstruction', XB=18.4,18.6,51.6,51.6,-1.6,-0.2, SURF_ID='downstands', DEVC_ID='TIMER->OUT'/ 
&OBST ID='Obstruction', XB=18.4,18.6,54.8,54.8,-1.6,-0.2, SURF_ID='downstands', DEVC_ID='TIMER->OUT'/ 
&OBST ID='Obstruction', XB=18.6,18.8,51.4,51.4,-1.6,-0.2, SURF_ID='downstands', DEVC_ID='TIMER->OUT'/ 
&OBST ID='Obstruction', XB=18.6,18.8,55.0,55.0,-1.6,-0.2, SURF_ID='downstands', DEVC_ID='TIMER->OUT'/ 
&OBST ID='Obstruction', XB=18.8,19.0,51.2,51.2,-1.6,-0.2, SURF_ID='downstands', DEVC_ID='TIMER->OUT'/ 
&OBST ID='Obstruction', XB=18.8,19.0,55.2,55.2,-1.6,-0.2, SURF_ID='downstands', DEVC_ID='TIMER->OUT'/ 
&OBST ID='Obstruction', XB=19.0,19.2,51.0,51.0,-1.6,-0.2, SURF_ID='downstands', DEVC_ID='TIMER->OUT'/ 
&OBST ID='Obstruction', XB=19.0,19.2,55.4,55.4,-1.6,-0.2, SURF_ID='downstands', DEVC_ID='TIMER->OUT'/ 
&OBST ID='Obstruction', XB=19.2,19.4,50.8,50.8,-1.6,-0.2, SURF_ID='downstands', DEVC_ID='TIMER->OUT'/ 
&OBST ID='Obstruction', XB=19.2,19.4,55.6,55.6,-1.6,-0.2, SURF_ID='downstands', DEVC_ID='TIMER->OUT'/ 
&OBST ID='Obstruction', XB=19.4,19.6,50.6,50.6,-1.6,-0.2, SURF_ID='downstands', DEVC_ID='TIMER->OUT'/ 
&OBST ID='Obstruction', XB=19.4,19.6,55.8,55.8,-1.6,-0.2, SURF_ID='downstands', DEVC_ID='TIMER->OUT'/ 
&OBST ID='Obstruction', XB=19.6,19.8,50.4,50.4,-1.6,-0.2, SURF_ID='downstands', DEVC_ID='TIMER->OUT'/ 
&OBST ID='Obstruction', XB=19.6,19.8,56.0,56.0,-1.6,-0.2, SURF_ID='downstands', DEVC_ID='TIMER->OUT'/ 
&OBST ID='Obstruction', XB=19.8,20.0,50.2,50.2,-1.6,-0.2, SURF_ID='downstands', DEVC_ID='TIMER->OUT'/ 
&OBST ID='Obstruction', XB=19.8,20.0,56.2,56.2,-1.6,-0.2, SURF_ID='downstands', DEVC_ID='TIMER->OUT'/ 
&OBST ID='Obstruction', XB=20.0,20.2,50.0,50.0,-1.6,-0.2, SURF_ID='downstands', DEVC_ID='TIMER->OUT'/ 
&OBST ID='Obstruction', XB=20.0,20.2,56.4,56.4,-1.6,-0.2, SURF_ID='downstands', DEVC_ID='TIMER->OUT'/ 
&OBST ID='Obstruction', XB=20.2,20.4,49.8,49.8,-1.6,-0.2, SURF_ID='downstands', DEVC_ID='TIMER->OUT'/ 
&OBST ID='Obstruction', XB=20.2,20.4,56.6,56.6,-1.6,-0.2, SURF_ID='downstands', DEVC_ID='TIMER->OUT'/ 
! ... 161 like lines cut
&OBST ID='Obstruction', XB=8.0,16.6,44.4,60.0,3.6,3.8, COLOR='INVISIBLE', SURF_ID='Floor'/ 
&OBST ID='Obstruction', XB=-10.4,8.0,29.8,60.0,3.6,3.8, COLOR='INVISIBLE', SURF_ID='Floor'/ 
&OBST ID='Obstruction', XB=16.6,43.6,44.4,60.0,3.6,3.8, COLOR='INVISIBLE', SURF_ID='Floor'/ 
&OBST ID='Obstruction', XB=-10.4,29.0,69.6,77.0,3.6,3.8, COLOR='INVISIBLE', SURF_ID='Floor'/ 
&OBST ID='Obstruction', XB=-10.4,32.0,60.0,69.6,3.6,3.8, COLOR='INVISIBLE', SURF_ID='Floor'/ 
&OBST ID='Obstruction', XB=8.0,43.6,29.8,44.4,3.6,3.8, COLOR='INVISIBLE', SURF_ID='Floor'/ 
&OBST ID='Obstruction', XB=43.6,60.8,29.8,46.8,3.6,3.8, COLOR='INVISIBLE', SURF_ID='Floor'/ 
&OBST ID='Obstruction', XB=43.6,60.8,49.0,60.0,3.6,3.8, COLOR='INVISIBLE', SURF_ID='Floor'/ 
&OBST ID='Obstruction', XB=43.6,67.0,46.8,49.0,3.6,3.8, COLOR='INVISIBLE', SURF_ID='Floor'/ 
&OBST ID='Obstruction', XB=65.0,67.0,44.0,46.8,3.6,3.8, COLOR='INVISIBLE', SURF_ID='Floor'/ 
&OBST ID='Obstruction', XB=65.0,69.8,42.0,44.0,3.6,3.8, COLOR='INVISIBLE', SURF_ID='Floor'/ 
&OBST ID='Obstruction', XB=65.6,67.0,49.0,59.0,3.6,3.8, COLOR='INVISIBLE', SURF_ID='Floor'/ 
&OBST ID='Obstruction', XB=67.8,69.8,31.4,42.0,3.6,3.8, COLOR='INVISIBLE', SURF_ID='Floor'/ 
&OBST ID='Obstruction', XB=32.0,60.8,60.0,69.6,3.6,3.8, COLOR='INVISIBLE', SURF_ID='Floor'/ 
&OBST ID='Obstruction', XB=34.4,50.4,74.0,77.0,3.6,3.8, COLOR='INVISIBLE', SURF_ID='Floor'/ 
&OBST ID='Obstruction', XB=34.4,60.8,72.2,74.0,3.6,3.8, COLOR='INVISIBLE', SURF_ID='Floor'/ 
&OBST ID='Obstruction', XB=36.0,60.8,69.6,72.2,3.6,3.8, COLOR='INVISIBLE', SURF_ID='Floor'/ 
&OBST ID='Obstruction', XB=-10.4,-3.941292E-15,-3.0,2.775558E-16,3.6,3.8, COLOR='INVISIBLE', SURF_ID='Floor'/ 
&OBST ID='Obstruction', XB=-10.4,5.2,2.775558E-16,4.4,3.6,3.8, COLOR='INVISIBLE', SURF_ID='Floor'/ 
&OBST ID='Obstruction', XB=-10.4,17.4,4.4,29.8,3.6,3.8, COLOR='INVISIBLE', SURF_ID='Floor'/ 
! ... 55 like lines cut
&OBST ID='Obstruction', XB=-6.8,-6.6,-1.8,1.8,0.0,2.2, THICKEN=.TRUE., SURF_ID='Wall', CTRL_ID='invert'/ 
&OBST ID='Obstruction', XB=-1.8,-1.6,44.8,46.6,0.0,2.2, THICKEN=.TRUE., SURF_ID='Wall', CTRL_ID='invert'/ 
&OBST ID='Obstruction', XB=23.4,25.2,1.8,2.0,0.0,2.2, THICKEN=.TRUE., SURF_ID='Wall', CTRL_ID='invert'/ 
&OBST ID='Obstruction', XB=36.2,37.4,72.2,72.4,0.0,2.2, THICKEN=.TRUE., SURF_ID='Wall', CTRL_ID='invert'/ 
&OBST ID='Obstruction', XB=60.6,60.8,47.0,48.8,0.0,2.2, SURF_ID='Wall', CTRL_ID='invert'/ 
&OBST ID='Obstruction', XB=-0.2,-3.941292E-15,0.2,2.0,0.0,2.2, SURF_ID='Wall', CTRL_ID='invert'/ 

&HOLE ID='Hole', XB=53.0,53.2,2.8,4.6,0.0,2.2/ 
&HOLE ID='Hole', XB=18.4,21.8,51.6,51.8,-0.2,1.165734E-15/ 
&HOLE ID='Hole', XB=18.4,22.0,51.8,52.0,-0.2,1.165734E-15/ 
&HOLE ID='Hole', XB=18.4,22.2,52.0,52.2,-0.2,1.165734E-15/ 
&HOLE ID='Hole', XB=18.4,22.4,52.2,52.4,-0.2,1.165734E-15/ 
&HOLE ID='Hole', XB=18.4,22.6,52.4,52.6,-0.2,1.165734E-15/ 
&HOLE ID='Hole', XB=18.4,22.8,52.6,52.8,-0.2,1.165734E-15/ 
&HOLE ID='Hole', XB=18.4,23.0,52.8,53.0,-0.2,1.165734E-15/ 
&HOLE ID='Hole', XB=18.4,41.8,53.0,54.8,-0.2,1.165734E-15/ 
&HOLE ID='Hole', XB=18.6,21.6,51.4,51.6,-0.2,1.165734E-15/ 
&HOLE ID='Hole', XB=18.6,41.8,54.8,55.0,-0.2,1.165734E-15/ 
&HOLE ID='Hole', XB=18.8,21.4,51.2,51.4,-0.2,1.165734E-15/ 
&HOLE ID='Hole', XB=18.8,41.6,55.0,55.2,-0.2,1.165734E-15/ 
&HOLE ID='Hole', XB=19.0,21.2,51.0,51.2,-0.2,1.165734E-15/ 
&HOLE ID='Hole', XB=19.0,41.4,55.2,55.4,-0.2,1.165734E-15/ 
&HOLE ID='Hole', XB=19.2,21.0,50.8,51.0,-0.2,1.165734E-15/ 
&HOLE ID='Hole', XB=19.2,41.2,55.4,55.6,-0.2,1.165734E-15/ 
&HOLE ID='Hole', XB=19.4,21.0,50.6,50.8,-0.2,1.165734E-15/ 
&HOLE ID='Hole', XB=19.4,41.0,55.6,55.8,-0.2,1.165734E-15/ 
&HOLE ID='Hole', XB=19.6,21.2,50.4,50.6,-0.2,1.165734E-15/ 
! ... 89 like lines cut

&VENT ID='Vent26', SURF_ID='extract_vents', XB=4.0,4.6,18.0,18.6,3.6,3.6/ 
&VENT ID='Vent27', SURF_ID='extract_vents', XB=-3.6,-3.0,18.0,18.6,3.6,3.6/ 
&VENT ID='Vent28', SURF_ID='extract_vents', XB=-3.6,-3.0,24.0,24.6,3.6,3.6/ 
&VENT ID='Vent29', SURF_ID='extract_vents', XB=4.6,5.2,25.8,26.4,3.6,3.6/ 
&VENT ID='Vent30', SURF_ID='extract_vents', XB=11.2,11.8,25.8,26.4,3.6,3.6/ 
&VENT ID='Vent31', SURF_ID='extract_vents', XB=34.0,34.6,25.8,26.4,3.6,3.6/ 
&VENT ID='Vent32', SURF_ID='extract_vents', XB=32.2,32.781002,18.0,18.6,3.6,3.6/ 
&VENT ID='Vent33', SURF_ID='extract_vents', XB=-3.6,-3.0,33.0,33.6,3.6,3.6/ 
&VENT ID='Vent34', SURF_ID='extract_vents', XB=3.4,4.0,33.0,33.6,3.6,3.6/ 
&VENT ID='Vent35', SURF_ID='extract_vents', XB=3.4,4.0,40.8,41.4,3.6,3.6/ 
&VENT ID='Vent36', SURF_ID='extract_vents', XB=0.6,1.2,48.2,48.8,3.6,3.6/ 
&VENT ID='Vent37', SURF_ID='extract_vents', XB=0.6,1.2,56.2,56.8,3.6,3.6/ 
&VENT ID='Vent38', SURF_ID='extract_vents', XB=-5.2,-4.6,51.4,52.0,3.6,3.6/ 
&VENT ID='Vent39', SURF_ID='extract_vents', XB=0.6,1.2,63.4,64.0,3.6,3.6/ 
&VENT ID='Vent40', SURF_ID='extract_vents', XB=7.8,8.4,63.4,64.0,3.6,3.6/ 
&VENT ID='Vent41', SURF_ID='extract_vents', XB=7.8,8.4,68.8,69.4,3.6,3.6/ 
&VENT ID='Vent42', SURF_ID='extract_vents', XB=15.6,16.2,63.4,64.0,3.6,3.6/ 
&VENT ID='Vent43', SURF_ID='extract_vents', XB=15.6,16.2,68.8,69.4,3.6,3.6/ 
&VENT ID='Vent44', SURF_ID='extract_vents', XB=15.6,16.2,74.2,74.8,3.6,3.6/ 
&VENT ID='Vent45', SURF_ID='extract_vents', XB=22.8,23.4,74.2,74.8,3.6,3.6/ 
! ... 41 like lines cut
&VENT ID='Vent07', SURF_ID='OPEN', XB=16.6,16.6,44.4,60.0,-4.0,-0.2/ 
&VENT ID='Vent08', SURF_ID='OPEN', XB=16.6,43.6,44.4,44.4,-4.0,-0.2/ 
&VENT ID='Vent09', SURF_ID='OPEN', XB=43.6,43.6,44.4,60.0,-4.0,-0.2/ 
&VENT ID='Vent10', SURF_ID='OPEN', XB=16.6,43.6,60.0,60.0,-4.0,-0.2/ 
&VENT ID='Vent', SURF_ID='OPEN', XB=-10.4,10.6,77.0,77.0,0.0,3.8/ 
&VENT ID='Vent01', SURF_ID='OPEN', XB=-10.4,-10.4,46.8,77.0,0.0,3.8/ 
&VENT ID='Vent02', SURF_ID='OPEN', XB=69.8,69.8,-3.0,60.0,-0.2,3.8/ 
&VENT ID='Vent03', SURF_ID='OPEN', XB=35.4,69.8,-3.0,-3.0,-0.2,3.8/ 
&VENT ID='Vent04', SURF_ID='OPEN', XB=-10.4,35.4,-3.0,-3.0,0.0,3.8/ 
&VENT ID='Vent05', SURF_ID='OPEN', XB=-10.4,69.8,-3.0,44.0,-0.2,-0.2/ 
&VENT ID='Vent06', SURF_ID='OPEN', XB=-10.4,-10.4,-3.0,46.8,-0.2,3.8/ 

&SLCF QUANTITY='TEMPERATURE', PBX=12.4/
&SLCF QUANTITY='VELOCITY', VECTOR=.TRUE., PBX=12.4/
&SLCF QUANTITY='VISIBILITY', PBX=12.4/
&SLCF QUANTITY='TEMPERATURE', PBY=52.2/
&SLCF QUANTITY='VELOCITY', VECTOR=.TRUE., PBY=52.2/
&SLCF QUANTITY='VISIBILITY', PBY=52.2/
&SLCF QUANTITY='VISIBILITY', PBZ=1.8/
&SLCF QUANTITY='TEMPERATURE', PBZ=1.8/
&SLCF QUANTITY='VELOCITY', VECTOR=.TRUE., PBZ=1.8/
&SLCF QUANTITY='TEMPERATURE', PBY=49.0/
&SLCF QUANTITY='TEMPERATURE', PBY=13.6/
&SLCF QUANTITY='TEMPERATURE', PBY=26.4/
&SLCF QUANTITY='TEMPERATURE', PBX=3.8/
&SLCF QUANTITY='TEMPERATURE', PBX=27.8/
&SLCF QUANTITY='TEMPERATURE', PBX=56.2/
&SLCF QUANTITY='TEMPERATURE', PBY=63.8/
&SLCF QUANTITY='TEMPERATURE', PBY=56.2/
&SLCF QUANTITY='TEMPERATURE', PBY=3.4/
&SLCF QUANTITY='VELOCITY', VECTOR=.TRUE., PBY=49.0/
&SLCF QUANTITY='VISIBILITY', PBY=49.0/
&SLCF QUANTITY='VISIBILITY', PBY=13.6/
&SLCF QUANTITY='VELOCITY', VECTOR=.TRUE., PBY=13.6/
&SLCF QUANTITY='VISCOSITY', PBY=26.4/
&SLCF QUANTITY='VELOCITY', VECTOR=.TRUE., PBY=26.4/
&SLCF QUANTITY='VELOCITY', VECTOR=.TRUE., PBX=3.8/
&SLCF QUANTITY='VISIBILITY', PBX=3.8/
&SLCF QUANTITY='VELOCITY', VECTOR=.TRUE., PBX=27.8/
&SLCF QUANTITY='VISIBILITY', PBX=27.8/
&SLCF QUANTITY='VELOCITY', VECTOR=.TRUE., PBX=56.2/
&SLCF QUANTITY='VISIBILITY', PBX=56.2/
&SLCF QUANTITY='VELOCITY', VECTOR=.TRUE., PBY=63.8/
&SLCF QUANTITY='VISIBILITY', PBY=63.8/
&SLCF QUANTITY='VELOCITY', VECTOR=.TRUE., PBY=56.2/
&SLCF QUANTITY='VISIBILITY', PBY=56.2/
&SLCF QUANTITY='VELOCITY', VECTOR=.TRUE., PBY=3.4/
&SLCF QUANTITY='VISIBILITY', PBY=3.4/
&SLCF QUANTITY='VELOCITY', VECTOR=.TRUE., PBY=7.2/
&SLCF QUANTITY='TEMPERATURE', PBZ=8.2/
&SLCF QUANTITY='VELOCITY', VECTOR=.TRUE., PBZ=8.2/
&SLCF QUANTITY='VISIBILITY', PBZ=8.2/
&SLCF QUANTITY='TEMPERATURE', PBZ=3.4/
&SLCF QUANTITY='VELOCITY', VECTOR=.TRUE., PBZ=3.4/
&SLCF QUANTITY='VISIBILITY', PBZ=3.4/
&SLCF QUANTITY='VISIBILITY', PBZ=2.5/
&SLCF QUANTITY='TEMPERATURE', PBZ=2.5/

&DEVC ID='flow_door1', QUANTITY='VOLUME FLOW', XB=36.2,37.4,72.2,72.4,0.0,2.2/
&DEVC ID='flow_door2', QUANTITY='VOLUME FLOW', XB=23.4,25.2,1.8,2.0,0.0,2.2/
&DEVC ID='flow_door3', QUANTITY='VOLUME FLOW', XB=-1.8,-1.6,44.8,46.6,0.0,2.2/
&DEVC ID='flow_door4', QUANTITY='VOLUME FLOW', XB=-6.8,-6.6,-1.8,1.8,0.0,2.2/
&DEVC ID='flow_door5', QUANTITY='VOLUME FLOW', XB=60.6,60.8,47.0,48.8,0.0,2.2/
&DEVC ID='flow_door6', QUANTITY='VOLUME FLOW', XB=-0.2,-3.941292E-15,0.2,2.0,0.0,2.2/
&DEVC ID='flow_door7', QUANTITY='VOLUME FLOW', XB=53.0,53.2,2.8,4.6,0.0,2.2/

&DEVC ID='flow_open1', QUANTITY='VOLUME FLOW', XB=16.6,16.6,44.4,60.0,-4.0,-0.2/
&DEVC ID='flow_open2', QUANTITY='VOLUME FLOW', XB=16.6,43.6,44.4,44.4,-4.0,-0.2/
&DEVC ID='flow_open3', QUANTITY='VOLUME FLOW', XB=43.6,43.6,44.4,60.0,-4.0,-0.2/
&DEVC ID='flow_open4', QUANTITY='VOLUME FLOW', XB=16.6,43.6,60.0,60.0,-4.0,-0.2/
&DEVC ID='flow_open5', QUANTITY='VOLUME FLOW', XB=-10.4,10.6,77.0,77.0,0.0,3.8/
&DEVC ID='flow_open61', QUANTITY='VOLUME FLOW', XB=-10.4,-10.4,46.8,60.0,0.0,3.6/
&DEVC ID='flow_open62', QUANTITY='VOLUME FLOW', XB=-10.4,-10.4,60.0,77.0,0.0,3.6/

&DEVC ID='flow_open71', QUANTITY='VOLUME FLOW', XB=69.8,69.8,-3.0,29.8,-0.2,3.8/
&DEVC ID='flow_open72', QUANTITY='VOLUME FLOW', XB=69.8,69.8,29.8,60.0,-0.2,3.8/

&DEVC ID='flow_open81', QUANTITY='VOLUME FLOW', XB=35.4,43.6,-3.0,-3.0,-0.2,3.8/
&DEVC ID='flow_open82', QUANTITY='VOLUME FLOW', XB=43.6,69.8,-3.0,-3.0,-0.2,3.8/

&DEVC ID='flow_open91', QUANTITY='VOLUME FLOW', XB=-10.4,17.4,-3.0,-3.0,0.0,3.8/
&DEVC ID='flow_open92', QUANTITY='VOLUME FLOW', XB=17.4,35.4,-3.0,-3.0,0.0,3.8/

&DEVC ID='flow_open101', QUANTITY='VOLUME FLOW', XB=17.4,43.6,-3.0,29.8,-0.2,-0.2/
&DEVC ID='flow_open102', QUANTITY='VOLUME FLOW', XB=43.6,69.8,-3.0,29.8,-0.2,-0.2/

&DEVC ID='flow_open110', QUANTITY='VOLUME FLOW', XB=-10.4,-10.4,-3.0,29.8,-0.2,3.8/
&DEVC ID='flow_open115', QUANTITY='VOLUME FLOW', XB=-10.4,-10.4,29.8,46.8,-0.2,3.8/

&DEVC	ID='Flow Vent26'    ,QUANTITY='VOLUME FLOW',	XB=4.0,4.6,18.0,18.6,3.6,3.6/
&DEVC	ID='Flow Vent27'	,QUANTITY='VOLUME FLOW',	XB=-3.6,-3.0,18.0,18.6,3.6,3.6/
&DEVC	ID='Flow Vent28'	,QUANTITY='VOLUME FLOW',	XB=-3.6,-3.0,24.0,24.6,3.6,3.6/
&DEVC	ID='Flow Vent29'	,QUANTITY='VOLUME FLOW',	XB=4.6,5.2,25.8,26.4,3.6,3.6/
&DEVC	ID='Flow Vent30'	,QUANTITY='VOLUME FLOW',	XB=11.2,11.8,25.8,26.4,3.6,3.6/
&DEVC	ID='Flow Vent31'	,QUANTITY='VOLUME FLOW',	XB=34.0,34.6,25.8,26.4,3.6,3.6/
&DEVC	ID='Flow Vent32'	,QUANTITY='VOLUME FLOW',	XB=32.2,32.781002,18.0,18.6,3.6,3.6/
&DEVC	ID='Flow Vent33'	,QUANTITY='VOLUME FLOW',	XB=-3.6,-3.0,33.0,33.6,3.6,3.6/
&DEVC	ID='Flow Vent34'	,QUANTITY='VOLUME FLOW',	XB=3.4,4.0,33.0,33.6,3.6,3.6/
&DEVC	ID='Flow Vent35'	,QUANTITY='VOLUME FLOW',	XB=3.4,4.0,40.8,41.4,3.6,3.6/
&DEVC	ID='Flow Vent36'	,QUANTITY='VOLUME FLOW',	XB=0.6,1.2,48.2,48.8,3.6,3.6/
&DEVC	ID='Flow Vent37'	,QUANTITY='VOLUME FLOW',	XB=0.6,1.2,56.2,56.8,3.6,3.6/
&DEVC	ID='Flow Vent38'	,QUANTITY='VOLUME FLOW',	XB=-5.2,-4.6,51.4,52.0,3.6,3.6/
&DEVC	ID='Flow Vent39'	,QUANTITY='VOLUME FLOW', 	XB=0.6,1.2,63.4,64.0,3.6,3.6/
&DEVC	ID='Flow Vent40'	,QUANTITY='VOLUME FLOW',	XB=7.8,8.4,63.4,64.0,3.6,3.6/
&DEVC	ID='Flow Vent41'	,QUANTITY='VOLUME FLOW',	XB=7.8,8.4,68.8,69.4,3.6,3.6/
&DEVC	ID='Flow Vent42'	,QUANTITY='VOLUME FLOW',	XB=15.6,16.2,63.4,64.0,3.6,3.6/
&DEVC	ID='Flow Vent43'	,QUANTITY='VOLUME FLOW',	XB=15.6,16.2,68.8,69.4,3.6,3.6/
&DEVC	ID='Flow Vent44'	,QUANTITY='VOLUME FLOW',	XB=15.6,16.2,74.2,74.8,3.6,3.6/
&DEVC	ID='Flow Vent45'	,QUANTITY='VOLUME FLOW',	XB=22.8,23.4,74.2,74.8,3.6,3.6/
! ... 41 like lines cut
&DEVC	ID='Slip and V39'	,QUANTITY='VOLUME FLOW',	XB=-7,4.8,60.6,70.6,3.4,3.4/

&TAIL /
