NTU_Sc_2.fds
Generated by PyroSim - Version 2021.1.0224
01-Apr-2021 18:03:40

&HEAD CHID='NTU_Sc_2'/
&TIME T_END=1200.0/
&DUMP DT_PL3D=30.0, DT_RESTART=300.0, NFRAMES=600, WRITE_XYZ=.TRUE., PLOT3D_QUANTITY='HRRPUV','PRESSURE','TEMPERATURE','VELOCITY','VISIBILITY'/
&MISC SIMULATION_MODE='LES'/

&MESH ID='LF atrium mesh-b-merged-d', IJK=138,70,38, XB=35.6,49.4,30.0,37.0,67.2,71.0/
&MESH ID='LF atrium mesh-b-b', IJK=69,40,19, XB=35.6,49.4,22.0,30.0,67.2,71.0/
&MESH ID='LF atrium mesh-b-c-merged', IJK=69,75,29, XB=35.6,49.4,22.0,37.0,71.0,76.8/
&MESH ID='UP right of atrium', IJK=40,110,20, XB=49.4,57.4,22.0,44.0,70.8,74.8/
&MESH ID='UF left of atrium', FYI='Upper floor ', IJK=43,85,77, XB=27.0,35.6,22.0,39.0,59.6,75.0/
&MESH ID='LF atrium mesh-a-merged', IJK=69,75,76, XB=35.6,49.4,22.0,37.0,52.0,67.2/
&MESH ID='LF atrium mesh-a-merged-merged', IJK=64,75,40, XB=35.6,48.4,22.0,37.0,44.0,52.0/
&MESH ID='LF right of atrium - Fire scenario 1-merged-merged', IJK=46,90,40, XB=48.4,57.6,24.0,42.0,44.0,52.0/
&MESH ID='LF left of atrium', FYI='Lower floor left atrium', IJK=43,75,78, XB=27.0,35.6,22.0,37.0,44.0,59.6/

&SPEC ID='WATER VAPOR'/

&PART ID='Water02',
      SPEC_ID='WATER VAPOR',
      DIAMETER=800.0,
      MONODISPERSE=.TRUE.,
      AGE=10.0,
      SAMPLING_FACTOR=1/

&REAC ID='Upper level (Museum)',
      FUEL='REAC_FUEL',
      C=3.05,
      H=5.35,
      O=1.32,
      AUTO_IGNITION_TEMPERATURE=0.0,
      CO_YIELD=0.02,
      SOOT_YIELD=0.069,
      EPUMO2=1.209E4,
      IDEAL=.TRUE./

&RAMP ID='Doors_RAMP', T=-0.25, F=1.0/
&RAMP ID='Doors_RAMP', T=0.25, F=-1.0/
&RAMP ID='Doors_RAMP', T=120.75, F=-1.0/
&RAMP ID='Doors_RAMP', T=121.25, F=1.0/
&PROP ID='SFPE',
      QUANTITY='CHAMBER OBSCURATION',
      ACTIVATION_OBSCURATION=27.7,
      ALPHA_E=0.0,
      BETA_E=1.0,
      ALPHA_C=1.8,
      BETA_C=1.0/
&PROP ID='Generic Commercial Link02_Floor spray02',
      QUANTITY='SPRINKLER LINK TEMPERATURE',
      ACTIVATION_TEMPERATURE=68.0,
      RTI=50.0,
      PART_ID='Water02',
      OFFSET=0.2,
      K_FACTOR=80.0,
      OPERATING_PRESSURE=0.5,
      SPRAY_PATTERN_TABLE='Generic Commercial Link02_Floor spray02_SPRAY_PATTERN_TABLE'/
&TABL ID='Generic Commercial Link02_Floor spray02_SPRAY_PATTERN_TABLE', TABLE_DATA=0.0,2.95,0.1,359.9,4.66,0.0104/
&TABL ID='Generic Commercial Link02_Floor spray02_SPRAY_PATTERN_TABLE', TABLE_DATA=2.95,5.9,0.1,359.9,4.65,0.0109/
&TABL ID='Generic Commercial Link02_Floor spray02_SPRAY_PATTERN_TABLE', TABLE_DATA=5.9,8.85,0.1,359.9,4.63,0.0121/
&TABL ID='Generic Commercial Link02_Floor spray02_SPRAY_PATTERN_TABLE', TABLE_DATA=8.85,11.8,0.1,359.9,4.64,0.0135/
&TABL ID='Generic Commercial Link02_Floor spray02_SPRAY_PATTERN_TABLE', TABLE_DATA=11.8,14.75,0.1,359.9,4.68,0.0152/
&TABL ID='Generic Commercial Link02_Floor spray02_SPRAY_PATTERN_TABLE', TABLE_DATA=14.75,17.7,0.1,359.9,4.75,0.0166/
&TABL ID='Generic Commercial Link02_Floor spray02_SPRAY_PATTERN_TABLE', TABLE_DATA=17.7,20.65,0.1,359.9,4.8,0.0181/
&TABL ID='Generic Commercial Link02_Floor spray02_SPRAY_PATTERN_TABLE', TABLE_DATA=20.65,23.6,0.1,359.9,4.85,0.0207/
&TABL ID='Generic Commercial Link02_Floor spray02_SPRAY_PATTERN_TABLE', TABLE_DATA=23.6,26.55,0.1,359.9,4.91,0.0236/
&TABL ID='Generic Commercial Link02_Floor spray02_SPRAY_PATTERN_TABLE', TABLE_DATA=26.55,29.5,0.1,359.9,4.96,0.0267/
&TABL ID='Generic Commercial Link02_Floor spray02_SPRAY_PATTERN_TABLE', TABLE_DATA=29.5,32.45,0.1,359.9,5.07,0.0308/
&TABL ID='Generic Commercial Link02_Floor spray02_SPRAY_PATTERN_TABLE', TABLE_DATA=32.45,35.4,0.1,359.9,5.18,0.0382/
&TABL ID='Generic Commercial Link02_Floor spray02_SPRAY_PATTERN_TABLE', TABLE_DATA=35.4,38.35,0.1,359.9,5.31,0.0438/
&TABL ID='Generic Commercial Link02_Floor spray02_SPRAY_PATTERN_TABLE', TABLE_DATA=38.35,41.3,0.1,359.9,5.28,0.0488/
&TABL ID='Generic Commercial Link02_Floor spray02_SPRAY_PATTERN_TABLE', TABLE_DATA=41.3,44.25,0.1,359.9,5.33,0.0548/
&TABL ID='Generic Commercial Link02_Floor spray02_SPRAY_PATTERN_TABLE', TABLE_DATA=44.25,47.2,0.1,359.9,5.39,0.0592/
&TABL ID='Generic Commercial Link02_Floor spray02_SPRAY_PATTERN_TABLE', TABLE_DATA=47.2,50.15,0.1,359.9,5.44,0.0646/
&TABL ID='Generic Commercial Link02_Floor spray02_SPRAY_PATTERN_TABLE', TABLE_DATA=50.15,53.1,0.1,359.9,5.51,0.0675/
&TABL ID='Generic Commercial Link02_Floor spray02_SPRAY_PATTERN_TABLE', TABLE_DATA=53.1,56.05,0.1,359.9,5.64,0.0692/
&TABL ID='Generic Commercial Link02_Floor spray02_SPRAY_PATTERN_TABLE', TABLE_DATA=56.05,59.0,0.1,359.9,5.79,0.0701/
! ... 8 like lines cut
&CTRL ID='invert', FUNCTION_TYPE='ALL', LATCH=.FALSE., INITIAL_STATE=.TRUE., INPUT_ID='Doors'/
&CTRL ID='Doors', FUNCTION_TYPE='CUSTOM', RAMP_ID='Doors_RAMP', LATCH=.FALSE., INPUT_ID='TIME'/
&DEVC ID='Mechanical vent', QUANTITY='VOLUME FLOW', XB=40.8,43.2,29.4,30.8,75.4,75.4/
&DEVC ID='Kitchen door', QUANTITY='VOLUME FLOW', XB=57.6,57.6,32.8,33.6,44.4,46.6/
&DEVC ID='Atrium side door', QUANTITY='VOLUME FLOW', XB=55.0,55.0,30.8,32.2,44.4,46.6/
&DEVC ID='Atrium door', QUANTITY='VOLUME FLOW', XB=41.0,44.0,24.4,24.4,44.4,46.6/
&DEVC ID='SD06', PROP_ID='SFPE', XYZ=36.6,34.8,70.8/
&DEVC ID='SD07', PROP_ID='SFPE', XYZ=41.4,34.8,70.8/
&DEVC ID='SD08', PROP_ID='SFPE', XYZ=36.6,31.2,70.8/
&DEVC ID='SD10', PROP_ID='SFPE', XYZ=47.4,34.8,70.8/
&DEVC ID='SD11', PROP_ID='SFPE', XYZ=47.4,31.2,70.8/
&DEVC ID='sprinkler04', PROP_ID='Generic Commercial Link02_Floor spray02', XYZ=41.4,31.2,70.8/
&DEVC ID='sprinkler09', PROP_ID='Generic Commercial Link02_Floor spray02', XYZ=44.4,34.8,70.8/
&DEVC ID='sprinkler10', PROP_ID='Generic Commercial Link02_Floor spray02', XYZ=44.4,31.2,70.8/
&DEVC ID='sprinkler11', PROP_ID='Generic Commercial Link02_Floor spray02', XYZ=36.6,31.2,70.8/
&DEVC ID='sprinkler12', PROP_ID='Generic Commercial Link02_Floor spray02', XYZ=36.6,34.8,70.8/
&DEVC ID='TIME', QUANTITY='TIME', XYZ=35.6,30.0,67.2/

&MATL ID='CONCRETE',
      FYI='NBSIR 88-3752 - ATF NIST Multi-Floor Validation',
      SPECIFIC_HEAT=1.04,
      CONDUCTIVITY=1.8,
      DENSITY=2280.0/
&MATL ID='STEEL',
      FYI='Drysdale, Intro to Fire Dynamics - ATF NIST Multi-Floor Validation',
      SPECIFIC_HEAT=0.46,
      CONDUCTIVITY=45.8,
      DENSITY=7850.0,
      EMISSIVITY=0.95/
&MATL ID='GYPSUM PLASTER',
      FYI='Quintiere, Fire Behavior - NIST NRC Validation',
      SPECIFIC_HEAT=0.84,
      CONDUCTIVITY=0.48,
      DENSITY=1440.0/
&MATL ID='Glass',
      SPECIFIC_HEAT=0.84,
      CONDUCTIVITY=0.8,
      DENSITY=2500.0/

&SURF ID='ADIABATIC',
      COLOR='GRAY 80',
      DEFAULT=.TRUE.,
      ADIABATIC=.TRUE./
&SURF ID='Floor slab',
      BACKING='VOID',
      MATL_ID(1,1)='CONCRETE',
      MATL_MASS_FRACTION(1,1)=1.0,
      THICKNESS(1)=0.4/
&SURF ID='Stair',
      RGB=55,242,56,
      BACKING='VOID',
      MATL_ID(1,1)='STEEL',
      MATL_MASS_FRACTION(1,1)=1.0,
      THICKNESS(1)=0.2/
&SURF ID='Wall',
      RGB=255,102,0,
      BACKING='VOID',
      MATL_ID(1,1)='GYPSUM PLASTER',
      MATL_MASS_FRACTION(1,1)=1.0,
      THICKNESS(1)=0.2/
&SURF ID='Screen',
      FYI='To be decided.',
      RGB=127,221,255,
      BACKING='VOID',
      MATL_ID(1,1)='Glass',
      MATL_MASS_FRACTION(1,1)=1.0,
      THICKNESS(1)=0.1/
&SURF ID='Glazing',
      RGB=45,39,224,
      VOLUME_FLOW=0.0,
      HRRPUA=0.0/
&SURF ID='Mechanical vent top of stairs',
      RGB=26,128,26,
      VOLUME_FLOW=6.8,
      RAMP_V='Mechanical vent top of stairs_RAMP_V'/
&RAMP ID='Mechanical vent top of stairs_RAMP_V', T=0.0, F=0.0/
&RAMP ID='Mechanical vent top of stairs_RAMP_V', T=121.0, F=0.0/
&RAMP ID='Mechanical vent top of stairs_RAMP_V', T=151.0, F=1.0/
&RAMP ID='Mechanical vent top of stairs_RAMP_V', T=1200.0, F=1.0/
&SURF ID='Fire scenario 2-1',
      FYI='FS2 (08MW) Medium 500 kW/m2 ramp1',
      COLOR='RED',
      TEXTURE_MAP='psm_fire1.jpg',
      HRRPUA=500.0,
      RAMP_Q='Fire scenario 2-1_RAMP_Q',
      TMP_FRONT=300.0/
&RAMP ID='Fire scenario 2-1_RAMP_Q', T=0.0, F=0.0/
&RAMP ID='Fire scenario 2-1_RAMP_Q', T=32.33, F=0.05/
&RAMP ID='Fire scenario 2-1_RAMP_Q', T=45.72, F=0.1/
&RAMP ID='Fire scenario 2-1_RAMP_Q', T=56.0, F=0.15/
&RAMP ID='Fire scenario 2-1_RAMP_Q', T=64.66, F=0.2/
&RAMP ID='Fire scenario 2-1_RAMP_Q', T=72.29, F=0.25/
&RAMP ID='Fire scenario 2-1_RAMP_Q', T=79.19, F=0.3/
&RAMP ID='Fire scenario 2-1_RAMP_Q', T=85.54, F=0.35/
&RAMP ID='Fire scenario 2-1_RAMP_Q', T=91.44, F=0.4/
&RAMP ID='Fire scenario 2-1_RAMP_Q', T=96.99, F=0.45/
&RAMP ID='Fire scenario 2-1_RAMP_Q', T=102.24, F=0.5/
&RAMP ID='Fire scenario 2-1_RAMP_Q', T=107.23, F=0.55/
&RAMP ID='Fire scenario 2-1_RAMP_Q', T=111.99, F=0.6/
&RAMP ID='Fire scenario 2-1_RAMP_Q', T=116.57, F=0.65/
&RAMP ID='Fire scenario 2-1_RAMP_Q', T=120.97, F=0.7/
&RAMP ID='Fire scenario 2-1_RAMP_Q', T=125.21, F=0.75/
&RAMP ID='Fire scenario 2-1_RAMP_Q', T=129.32, F=0.8/
&RAMP ID='Fire scenario 2-1_RAMP_Q', T=133.3, F=0.85/
&RAMP ID='Fire scenario 2-1_RAMP_Q', T=137.16, F=0.9/
&RAMP ID='Fire scenario 2-1_RAMP_Q', T=140.92, F=0.95/
&RAMP ID='Fire scenario 2-1_RAMP_Q', T=144.58, F=1.0/
&RAMP ID='Fire scenario 2-1_RAMP_Q', T=1200.0, F=1.0/
&SURF ID='Fire scenario 2-2',
      FYI='FS2 (08MW) Medium 500 kW/m2 ramp2',
      COLOR='RED',
      TEXTURE_MAP='psm_fire2.jpg',
      HRRPUA=500.0,
      RAMP_Q='Fire scenario 2-2_RAMP_Q',
      TMP_FRONT=300.0/
&RAMP ID='Fire scenario 2-2_RAMP_Q', T=0.0, F=0.0/
&RAMP ID='Fire scenario 2-2_RAMP_Q', T=144.58, F=0.0/
&RAMP ID='Fire scenario 2-2_RAMP_Q', T=148.15, F=0.05/
&RAMP ID='Fire scenario 2-2_RAMP_Q', T=151.64, F=0.1/
&RAMP ID='Fire scenario 2-2_RAMP_Q', T=155.05, F=0.15/
&RAMP ID='Fire scenario 2-2_RAMP_Q', T=158.38, F=0.2/
&RAMP ID='Fire scenario 2-2_RAMP_Q', T=161.65, F=0.25/
&RAMP ID='Fire scenario 2-2_RAMP_Q', T=164.85, F=0.3/
&RAMP ID='Fire scenario 2-2_RAMP_Q', T=167.99, F=0.35/
&RAMP ID='Fire scenario 2-2_RAMP_Q', T=171.07, F=0.4/
&RAMP ID='Fire scenario 2-2_RAMP_Q', T=174.1, F=0.45/
&RAMP ID='Fire scenario 2-2_RAMP_Q', T=177.08, F=0.5/
&RAMP ID='Fire scenario 2-2_RAMP_Q', T=180.01, F=0.55/
&RAMP ID='Fire scenario 2-2_RAMP_Q', T=182.89, F=0.6/
&RAMP ID='Fire scenario 2-2_RAMP_Q', T=185.72, F=0.65/
&RAMP ID='Fire scenario 2-2_RAMP_Q', T=188.51, F=0.7/
&RAMP ID='Fire scenario 2-2_RAMP_Q', T=191.27, F=0.75/
&RAMP ID='Fire scenario 2-2_RAMP_Q', T=193.98, F=0.8/
&RAMP ID='Fire scenario 2-2_RAMP_Q', T=196.66, F=0.85/
&RAMP ID='Fire scenario 2-2_RAMP_Q', T=199.29, F=0.9/
&RAMP ID='Fire scenario 2-2_RAMP_Q', T=201.9, F=0.95/
&RAMP ID='Fire scenario 2-2_RAMP_Q', T=204.47, F=1.0/
&RAMP ID='Fire scenario 2-2_RAMP_Q', T=1200.0, F=1.0/
&SURF ID='Fire scenario 2-3',
      FYI='FS2 (08MW) Medium 500 kW/m2 ramp3',
      COLOR='RED',
      TEXTURE_MAP='psm_fire3.jpg',
      HRRPUA=500.0,
      RAMP_Q='Fire scenario 2-3_RAMP_Q',
      TMP_FRONT=300.0/
&RAMP ID='Fire scenario 2-3_RAMP_Q', T=0.0, F=0.0/
&RAMP ID='Fire scenario 2-3_RAMP_Q', T=204.47, F=0.0/
&RAMP ID='Fire scenario 2-3_RAMP_Q', T=207.01, F=0.05/
&RAMP ID='Fire scenario 2-3_RAMP_Q', T=209.52, F=0.1/
&RAMP ID='Fire scenario 2-3_RAMP_Q', T=212.0, F=0.15/
&RAMP ID='Fire scenario 2-3_RAMP_Q', T=214.45, F=0.2/
&RAMP ID='Fire scenario 2-3_RAMP_Q', T=216.88, F=0.25/
&RAMP ID='Fire scenario 2-3_RAMP_Q', T=219.27, F=0.3/
&RAMP ID='Fire scenario 2-3_RAMP_Q', T=221.64, F=0.35/
&RAMP ID='Fire scenario 2-3_RAMP_Q', T=223.99, F=0.4/
&RAMP ID='Fire scenario 2-3_RAMP_Q', T=226.31, F=0.45/
&RAMP ID='Fire scenario 2-3_RAMP_Q', T=228.61, F=0.5/
&RAMP ID='Fire scenario 2-3_RAMP_Q', T=230.88, F=0.55/
&RAMP ID='Fire scenario 2-3_RAMP_Q', T=233.13, F=0.6/
&RAMP ID='Fire scenario 2-3_RAMP_Q', T=235.37, F=0.65/
&RAMP ID='Fire scenario 2-3_RAMP_Q', T=237.58, F=0.7/
&RAMP ID='Fire scenario 2-3_RAMP_Q', T=239.76, F=0.75/
&RAMP ID='Fire scenario 2-3_RAMP_Q', T=241.93, F=0.8/
&RAMP ID='Fire scenario 2-3_RAMP_Q', T=244.09, F=0.85/
&RAMP ID='Fire scenario 2-3_RAMP_Q', T=246.22, F=0.9/
&RAMP ID='Fire scenario 2-3_RAMP_Q', T=248.33, F=0.95/
&RAMP ID='Fire scenario 2-3_RAMP_Q', T=250.43, F=1.0/
&RAMP ID='Fire scenario 2-3_RAMP_Q', T=1200.0, F=1.0/
&SURF ID='Fire scenario 2-4',
      FYI='FS2 (08MW) Medium 500 kW/m2 ramp4',
      COLOR='RED',
      TEXTURE_MAP='psm_fire4.jpg',
      HRRPUA=500.0,
      RAMP_Q='Fire scenario 2-4_RAMP_Q',
      TMP_FRONT=300.0/
&RAMP ID='Fire scenario 2-4_RAMP_Q', T=0.0, F=0.0/
&RAMP ID='Fire scenario 2-4_RAMP_Q', T=250.43, F=0.0/
&RAMP ID='Fire scenario 2-4_RAMP_Q', T=252.5, F=0.05/
&RAMP ID='Fire scenario 2-4_RAMP_Q', T=254.57, F=0.1/
&RAMP ID='Fire scenario 2-4_RAMP_Q', T=256.61, F=0.15/
&RAMP ID='Fire scenario 2-4_RAMP_Q', T=258.64, F=0.2/
&RAMP ID='Fire scenario 2-4_RAMP_Q', T=260.65, F=0.25/
&RAMP ID='Fire scenario 2-4_RAMP_Q', T=262.65, F=0.3/
&RAMP ID='Fire scenario 2-4_RAMP_Q', T=264.63, F=0.35/
&RAMP ID='Fire scenario 2-4_RAMP_Q', T=266.6, F=0.4/
&RAMP ID='Fire scenario 2-4_RAMP_Q', T=268.55, F=0.45/
&RAMP ID='Fire scenario 2-4_RAMP_Q', T=270.49, F=0.5/
&RAMP ID='Fire scenario 2-4_RAMP_Q', T=272.42, F=0.55/
&RAMP ID='Fire scenario 2-4_RAMP_Q', T=273.0, F=0.563/
&RAMP ID='Fire scenario 2-4_RAMP_Q', T=276.23, F=0.563/
&RAMP ID='Fire scenario 2-4_RAMP_Q', T=278.11, F=0.563/
&RAMP ID='Fire scenario 2-4_RAMP_Q', T=279.99, F=0.563/
&RAMP ID='Fire scenario 2-4_RAMP_Q', T=281.85, F=0.563/
&RAMP ID='Fire scenario 2-4_RAMP_Q', T=283.69, F=0.563/
&RAMP ID='Fire scenario 2-4_RAMP_Q', T=285.53, F=0.563/
&RAMP ID='Fire scenario 2-4_RAMP_Q', T=287.35, F=0.563/
&RAMP ID='Fire scenario 2-4_RAMP_Q', T=289.17, F=0.563/
&RAMP ID='Fire scenario 2-4_RAMP_Q', T=1200.0, F=0.563/

&OBST ID='Steps', XB=40.2,40.6,27.8,32.4,44.4,44.6, SURF_ID='Stair'/ 
&OBST ID='Steps', XB=39.8,40.2,27.8,32.4,44.4,44.8, SURF_ID='Stair'/ 
&OBST ID='Steps', XB=39.4,39.8,28.0,32.4,44.4,45.0, SURF_ID='Stair'/ 
&OBST ID='Steps', XB=39.0,39.4,28.0,32.4,44.4,45.2, SURF_ID='Stair'/ 
&OBST ID='Steps', XB=38.6,39.0,28.0,32.4,44.4,45.4, SURF_ID='Stair'/ 
&OBST ID='Steps', XB=38.2,38.6,28.2,32.4,44.4,45.6, SURF_ID='Stair'/ 
&OBST ID='Steps', XB=37.8,38.2,28.2,32.4,44.4,45.8, SURF_ID='Stair'/ 
&OBST ID='Steps', XB=37.4,37.8,28.4,32.4,44.4,46.0, SURF_ID='Stair'/ 
&OBST ID='Steps', XB=37.0,37.4,28.4,32.4,44.4,46.2, SURF_ID='Stair'/ 
&OBST ID='Steps', XB=36.6,37.0,28.6,32.4,44.4,46.4, SURF_ID='Stair'/ 
&OBST ID='Steps', XB=36.2,36.6,28.6,32.4,44.4,46.6, SURF_ID='Stair'/ 
&OBST ID='Steps', XB=35.2,36.2,28.8,32.4,44.4,46.8, SURF_ID='Stair'/ 
&OBST ID='Steps', XB=34.8,35.2,28.8,32.4,44.4,47.0, SURF_ID='Stair'/ 
&OBST ID='Steps', XB=34.4,34.8,29.0,32.4,44.4,47.2, SURF_ID='Stair'/ 
&OBST ID='Steps', XB=34.0,34.4,29.0,32.4,44.4,47.4, SURF_ID='Stair'/ 
&OBST ID='Steps', XB=33.6,34.0,29.0,32.4,44.4,47.6, SURF_ID='Stair'/ 
&OBST ID='Steps', XB=33.2,33.6,28.6,32.4,44.4,48.0, SURF_ID='Stair'/ 
&OBST ID='Steps', XB=32.8,33.2,28.6,32.4,44.4,48.2, SURF_ID='Stair'/ 
&OBST ID='Steps', XB=32.6,32.8,29.2,32.4,44.4,48.2, SURF_ID='Stair'/ 
&OBST ID='Internal wall 00.1', XB=33.4,33.8,24.4,29.2,44.4,48.2, SURF_ID='Wall'/ 
&OBST ID='Wall between cafe and reception', XB=47.2,47.4,32.6,34.8,44.4,48.2, SURF_ID='Wall'/ 
&OBST ID='Obstruction', XB=27.0,27.6,32.2,32.6,44.4,48.2, SURF_ID='Wall'/ 
&OBST ID='Obstruction', XB=30.0,30.2,36.4,37.0,44.4,48.2, SURF_ID='Wall'/ 
&OBST ID='Obstruction', XB=36.0,36.2,35.6,37.0,44.4,48.2, SURF_ID='Wall'/ 
&OBST ID='Wall atrium 01', XB=46.6,48.4,32.4,32.6,48.2,52.0, SURF_ID='Wall'/ 
&OBST ID='Obstruction', XB=38.8,38.8,24.6,25.6,48.2,49.2, SURF_ID='Screen'/ 
&OBST ID='Obstruction', XB=38.8,39.2,25.8,27.2,48.2,48.4, SURF_ID='Stair'/ 
&OBST ID='Obstruction', XB=39.2,39.6,25.8,27.2,48.2,48.6, SURF_ID='Stair'/ 
&OBST ID='Obstruction', XB=39.6,40.0,25.8,27.2,48.4,48.8, SURF_ID='Stair'/ 
&OBST ID='Obstruction', XB=40.0,40.4,25.8,27.2,48.6,49.0, SURF_ID='Stair'/ 
&OBST ID='Obstruction', XB=40.4,40.8,25.8,27.2,48.8,49.2, SURF_ID='Stair'/ 
&OBST ID='Obstruction', XB=40.8,41.2,25.8,27.2,49.0,49.4, SURF_ID='Stair'/ 
&OBST ID='Obstruction', XB=41.2,41.6,25.8,27.2,49.2,49.6, SURF_ID='Stair'/ 
&OBST ID='Obstruction', XB=41.6,42.0,25.8,27.2,49.4,49.8, SURF_ID='Stair'/ 
&OBST ID='Obstruction', XB=42.0,42.4,25.8,27.2,49.6,50.0, SURF_ID='Stair'/ 
&OBST ID='Obstruction', XB=42.4,42.8,25.8,27.2,49.8,50.2, SURF_ID='Stair'/ 
&OBST ID='Obstruction', XB=42.8,43.2,25.8,27.2,50.0,50.4, SURF_ID='Stair'/ 
&OBST ID='Obstruction', XB=43.2,43.6,25.8,27.2,50.2,50.6, SURF_ID='Stair'/ 
&OBST ID='Obstruction', XB=43.6,44.0,25.8,27.2,50.4,50.8, SURF_ID='Stair'/ 
&OBST ID='Obstruction', XB=44.0,44.4,25.8,27.2,50.6,51.0, SURF_ID='Stair'/ 
&OBST ID='Obstruction', XB=44.4,44.8,25.8,27.2,50.8,51.2, SURF_ID='Stair'/ 
&OBST ID='Obstruction', XB=44.8,45.2,25.8,27.2,51.0,51.4, SURF_ID='Stair'/ 
&OBST ID='Obstruction', XB=45.2,45.6,25.8,27.2,51.2,51.6, SURF_ID='Stair'/ 
&OBST ID='Obstruction', XB=45.6,46.0,25.8,27.2,51.4,51.8, SURF_ID='Stair'/ 
&OBST ID='Obstruction', XB=46.0,46.4,25.8,27.2,51.6,52.0, SURF_ID='Stair'/ 
&OBST ID='Obstruction', XB=38.8,39.2,27.2,27.4,48.2,49.4, SURF_ID='Stair'/ 
! ... 37 like lines cut
&OBST ID='Screen 01', XB=32.8,46.6,32.4,32.4,48.2,52.0, SURF_ID='Screen'/ 
&OBST ID='Obstruction', XB=27.0,29.6,35.2,35.4,48.2,52.0, SURF_ID='Wall'/ 
&OBST ID='Obstruction', XB=30.0,30.2,35.4,37.0,48.2,52.0, SURF_ID='Wall'/ 
&OBST ID='Obstruction', XB=48.4,48.6,35.4,37.0,48.2,52.0, SURF_ID='Wall'/ 
&OBST ID='Obstruction', XB=36.0,36.2,35.4,37.0,48.2,52.0, SURF_ID='Wall'/ 
&OBST ID='Obstruction', XB=46.0,46.0,24.8,25.6,52.0,53.0, SURF_ID='Screen'/ 
&OBST ID='Obstruction', XB=45.8,45.8,29.8,30.6,52.0,53.0, SURF_ID='Screen'/ 
&OBST ID='Screen 02', XB=38.6,45.8,30.6,30.6,52.0,53.0, SURF_ID='Screen'/ 
&OBST ID='Glazing 02', XB=38.6,45.6,24.4,24.6,52.0,55.8, SURF_ID='Glazing'/ 
&OBST ID='Obstruction', XB=31.4,31.6,25.0,32.8,52.0,55.8, SURF_ID='Wall'/ 
&OBST ID='Obstruction', XB=27.0,29.6,33.4,33.6,52.0,55.8, SURF_ID='Wall'/ 
&OBST ID='Obstruction', XB=30.0,30.2,35.4,37.0,52.0,55.8, SURF_ID='Wall'/ 
&OBST ID='Obstruction', XB=48.0,48.2,35.4,37.0,52.0,55.8, SURF_ID='Wall'/ 
&OBST ID='Obstruction', XB=35.8,36.0,35.4,37.0,52.0,55.8, SURF_ID='Wall'/ 
&OBST ID='Obstruction', XB=38.4,38.4,29.6,30.6,55.8,56.8, SURF_ID='Screen'/ 
&OBST ID='Obstruction', XB=38.2,38.2,27.8,28.0,55.8,56.8, SURF_ID='Screen'/ 
&OBST ID='Obstruction', XB=38.6,38.6,24.8,25.6,55.8,56.8, SURF_ID='Screen'/ 
&OBST ID='Obstruction', XB=45.6,45.6,24.8,25.6,59.0,59.4, SURF_ID='Screen'/ 
&OBST ID='Obstruction', XB=38.6,39.0,25.8,27.2,55.8,56.0, SURF_ID='Stair'/ 
&OBST ID='Obstruction', XB=39.0,39.4,25.8,27.2,55.8,56.2, SURF_ID='Stair'/ 
&OBST ID='Obstruction', XB=39.4,39.8,25.8,27.2,56.0,56.4, SURF_ID='Stair'/ 
&OBST ID='Obstruction', XB=39.8,40.2,25.8,27.2,56.2,56.6, SURF_ID='Stair'/ 
&OBST ID='Obstruction', XB=40.2,40.6,25.8,27.2,56.4,56.8, SURF_ID='Stair'/ 
&OBST ID='Obstruction', XB=40.6,41.0,25.8,27.2,56.6,57.0, SURF_ID='Stair'/ 
&OBST ID='Obstruction', XB=41.0,41.4,25.8,27.2,56.8,57.2, SURF_ID='Stair'/ 
&OBST ID='Obstruction', XB=41.4,41.8,25.8,27.2,57.0,57.4, SURF_ID='Stair'/ 
&OBST ID='Obstruction', XB=41.8,42.2,25.8,27.2,57.2,57.6, SURF_ID='Stair'/ 
&OBST ID='Obstruction', XB=42.2,42.6,25.8,27.2,57.4,57.8, SURF_ID='Stair'/ 
&OBST ID='Obstruction', XB=42.6,43.0,25.8,27.2,57.6,58.0, SURF_ID='Stair'/ 
&OBST ID='Obstruction', XB=43.0,43.4,25.8,27.2,57.8,58.2, SURF_ID='Stair'/ 
&OBST ID='Obstruction', XB=43.4,43.8,25.8,27.2,58.0,58.4, SURF_ID='Stair'/ 
&OBST ID='Obstruction', XB=43.8,44.2,25.8,27.2,58.2,58.6, SURF_ID='Stair'/ 
&OBST ID='Obstruction', XB=44.2,44.6,25.8,27.2,58.4,58.8, SURF_ID='Stair'/ 
&OBST ID='Obstruction', XB=44.6,45.0,25.8,27.2,58.6,59.0, SURF_ID='Stair'/ 
&OBST ID='Obstruction', XB=45.0,45.4,25.8,27.2,58.8,59.2, SURF_ID='Stair'/ 
&OBST ID='Obstruction', XB=45.4,45.8,25.8,27.2,59.0,59.4, SURF_ID='Stair'/ 
&OBST ID='Obstruction', XB=45.8,46.2,25.8,27.2,59.2,59.6, SURF_ID='Stair'/ 
&OBST ID='Obstruction', XB=38.6,39.0,27.2,27.4,55.8,57.0, SURF_ID='Stair'/ 
! ... 37 like lines cut
&OBST ID='Glazing 03', XB=39.0,45.6,24.4,24.6,55.8,59.6, SURF_ID='Glazing'/ 
&OBST ID='Obstruction', XB=27.0,29.4,32.2,32.4,55.8,59.6, SURF_ID='Wall'/ 
&OBST ID='Obstruction', XB=29.8,30.0,35.4,37.0,55.8,59.6, SURF_ID='Wall'/ 
&OBST ID='Obstruction', XB=47.8,48.0,35.4,37.0,55.8,59.6, SURF_ID='Wall'/ 
&OBST ID='Obstruction', XB=35.6,35.8,35.4,37.0,55.8,59.6, SURF_ID='Wall'/ 
&OBST ID='Obstruction', XB=45.8,45.8,24.6,25.6,59.6,60.6, SURF_ID='Screen'/ 
&OBST ID='Obstruction', XB=45.8,45.8,29.8,30.6,59.6,60.6, SURF_ID='Screen'/ 
&OBST ID='Obstruction', XB=45.8,45.8,27.2,28.0,59.6,60.6, SURF_ID='Screen'/ 
&OBST ID='Glazing 04', XB=38.6,45.4,24.4,24.6,59.6,63.4, SURF_ID='Glazing'/ 
&OBST ID='Obstruction', XB=30.6,30.8,26.0,30.6,59.6,63.4, SURF_ID='Wall'/ 
&OBST ID='Obstruction', XB=27.0,33.4,30.6,31.0,59.6,63.4, SURF_ID='Wall'/ 
&OBST ID='Obstruction', XB=33.4,33.6,35.0,39.0,59.6,63.4, SURF_ID='Wall'/ 
&OBST ID='Obstruction', XB=47.8,48.0,35.4,39.0,59.6,63.4, SURF_ID='Wall'/ 
&OBST ID='Obstruction', XB=35.6,35.8,35.4,39.0,59.6,63.4, SURF_ID='Wall'/ 
&OBST ID='Obstruction', XB=45.6,45.6,24.8,25.6,66.6,67.0, SURF_ID='Screen'/ 
&OBST ID='Obstruction', XB=38.4,38.4,29.6,30.6,63.4,64.4, SURF_ID='Screen'/ 
&OBST ID='Obstruction', XB=38.2,38.2,27.8,28.0,63.4,64.4, SURF_ID='Screen'/ 
&OBST ID='Obstruction', XB=38.6,38.6,24.8,25.6,63.4,64.4, SURF_ID='Screen'/ 
&OBST ID='Obstruction', XB=38.6,39.0,25.6,27.0,63.4,63.6, SURF_ID='Stair'/ 
&OBST ID='Obstruction', XB=39.0,39.4,25.6,27.0,63.4,63.8, SURF_ID='Stair'/ 
&OBST ID='Obstruction', XB=39.4,39.8,25.6,27.0,63.6,64.0, SURF_ID='Stair'/ 
&OBST ID='Obstruction', XB=39.8,40.2,25.6,27.0,63.8,64.2, SURF_ID='Stair'/ 
&OBST ID='Obstruction', XB=40.2,40.6,25.6,27.0,64.0,64.4, SURF_ID='Stair'/ 
&OBST ID='Obstruction', XB=40.6,41.0,25.6,27.0,64.2,64.6, SURF_ID='Stair'/ 
&OBST ID='Obstruction', XB=41.0,41.4,25.6,27.0,64.4,64.8, SURF_ID='Stair'/ 
&OBST ID='Obstruction', XB=41.4,41.8,25.6,27.0,64.6,65.0, SURF_ID='Stair'/ 
&OBST ID='Obstruction', XB=41.8,42.2,25.6,27.0,64.8,65.2, SURF_ID='Stair'/ 
&OBST ID='Obstruction', XB=42.2,42.6,25.6,27.0,65.0,65.4, SURF_ID='Stair'/ 
&OBST ID='Obstruction', XB=42.6,43.0,25.6,27.0,65.2,65.6, SURF_ID='Stair'/ 
&OBST ID='Obstruction', XB=43.0,43.4,25.6,27.0,65.4,65.8, SURF_ID='Stair'/ 
&OBST ID='Obstruction', XB=43.4,43.8,25.6,27.0,65.6,66.0, SURF_ID='Stair'/ 
&OBST ID='Obstruction', XB=43.8,44.2,25.6,27.0,65.8,66.2, SURF_ID='Stair'/ 
&OBST ID='Obstruction', XB=44.2,44.6,25.6,27.0,66.0,66.4, SURF_ID='Stair'/ 
&OBST ID='Obstruction', XB=44.6,45.0,25.6,27.0,66.2,66.6, SURF_ID='Stair'/ 
&OBST ID='Obstruction', XB=45.0,45.4,25.6,27.0,66.4,66.8, SURF_ID='Stair'/ 
&OBST ID='Obstruction', XB=45.4,45.8,25.6,27.0,66.6,67.0, SURF_ID='Stair'/ 
&OBST ID='Obstruction', XB=45.8,46.2,25.6,27.0,66.8,67.2, SURF_ID='Stair'/ 
&OBST ID='Obstruction', XB=38.6,39.0,27.0,27.2,63.4,64.6, SURF_ID='Stair'/ 
! ... 37 like lines cut
&OBST ID='Glazing 05', XB=39.0,45.4,24.4,24.6,63.4,67.2, SURF_ID='Glazing'/ 
&OBST ID='Obstruction', XB=27.0,33.4,30.2,30.6,63.4,67.2, SURF_ID='Wall'/ 
&OBST ID='Obstruction', XB=33.4,33.6,35.0,39.0,63.4,67.2, SURF_ID='Wall'/ 
&OBST ID='Obstruction', XB=47.6,47.8,35.4,39.0,63.4,67.2, SURF_ID='Wall'/ 
&OBST ID='Obstruction', XB=35.4,35.6,35.4,39.0,63.4,67.2, SURF_ID='Wall'/ 
&OBST ID='Obstruction', XB=45.8,45.8,29.4,30.6,67.2,68.2, SURF_ID='Screen'/ 
&OBST ID='Obstruction', XB=45.8,45.8,24.6,25.6,67.2,68.2, SURF_ID='Screen'/ 
&OBST ID='Glazing 06', XB=39.0,45.4,24.4,24.6,67.2,71.0, SURF_ID='Glazing'/ 
&OBST ID='Obstruction', XB=27.0,27.4,36.4,36.6,67.2,71.0, SURF_ID='Wall'/ 
&OBST ID='Obstruction', XB=48.2,48.6,35.4,39.0,67.2,71.0, SURF_ID='Wall'/ 
&OBST ID='Obstruction', XB=36.2,36.4,35.4,39.0,67.2,71.0, SURF_ID='Wall'/ 
&OBST ID='Obstruction', XB=38.8,38.8,29.4,30.6,71.0,72.0, SURF_ID='Screen'/ 
&OBST ID='Obstruction', XB=38.6,38.6,24.8,27.2,71.0,72.0, SURF_ID='Screen'/ 
&OBST ID='Obstruction', XB=48.0,48.2,37.0,39.0,71.0,74.8, SURF_ID='Wall'/ 
&OBST ID='Obstruction', XB=36.0,36.2,35.0,39.0,71.0,74.8, SURF_ID='Wall'/ 
&OBST ID='Glazing 07', XB=39.2,45.6,24.4,24.6,71.0,74.8, SURF_ID='Glazing'/ 
&OBST ID='Column', XB=46.0,46.6,27.2,27.8,44.4,75.0, SURF_ID='Wall'/ 
&OBST ID='Column', XB=38.2,38.8,27.2,27.8,44.4,75.0, SURF_ID='Wall'/ 
&OBST ID='Obstruction', XB=48.6,49.4,22.6,22.8,52.0,71.0, SURF_ID='Wall'/ 
&OBST ID='extr_obstr', XB=41.0,43.0,29.6,30.6,76.0,76.2, RGB=102,204,255, SURF_IDS='ADIABATIC','ADIABATIC','Mechanical vent top of stairs'/ 
&OBST ID='Floor slab 00', XB=35.6,39.0,23.6,24.4,44.2,44.4, SURF_ID='Floor slab'/ 
&OBST ID='Floor slab 00', XB=35.6,46.4,24.4,24.6,44.2,44.4, SURF_ID='Floor slab'/ 
&OBST ID='Floor slab 00', XB=35.6,47.8,24.6,24.8,44.2,44.4, SURF_ID='Floor slab'/ 
&OBST ID='Floor slab 00', XB=35.6,48.4,24.8,37.0,44.2,44.4, SURF_ID='Floor slab'/ 
&OBST ID='Floor slab 00', XB=36.4,39.0,23.4,23.6,44.2,44.4, SURF_ID='Floor slab'/ 
&OBST ID='Floor slab 00', XB=37.4,39.0,23.2,23.4,44.2,44.4, SURF_ID='Floor slab'/ 
&OBST ID='Floor slab 00', XB=38.4,39.0,23.0,23.2,44.2,44.4, SURF_ID='Floor slab'/ 
&OBST ID='Floor slab 00', XB=48.4,49.2,24.8,25.0,44.2,44.4, SURF_ID='Floor slab'/ 
&OBST ID='Floor slab 00', XB=48.4,50.6,25.0,25.2,44.2,44.4, SURF_ID='Floor slab'/ 
&OBST ID='Floor slab 00', XB=48.4,51.8,25.2,25.4,44.2,44.4, SURF_ID='Floor slab'/ 
&OBST ID='Floor slab 00', XB=48.4,53.2,25.4,25.6,44.2,44.4, SURF_ID='Floor slab'/ 
&OBST ID='Floor slab 00', XB=48.4,54.6,25.6,25.8,44.2,44.4, SURF_ID='Floor slab'/ 
&OBST ID='Floor slab 00', XB=48.4,55.2,25.8,32.4,44.2,44.4, SURF_ID='Floor slab'/ 
&OBST ID='Floor slab 00', XB=48.4,57.2,32.4,42.0,44.2,44.4, SURF_ID='Floor slab'/ 
&OBST ID='Floor slab 00', XB=27.0,35.6,25.4,37.0,44.2,44.4, SURF_ID='Floor slab'/ 
&OBST ID='Floor slab 00', XB=27.2,35.6,25.2,25.4,44.2,44.4, SURF_ID='Floor slab'/ 
&OBST ID='Floor slab 00', XB=28.2,35.6,25.0,25.2,44.2,44.4, SURF_ID='Floor slab'/ 
&OBST ID='Floor slab 00', XB=29.2,35.6,24.8,25.0,44.2,44.4, SURF_ID='Floor slab'/ 
&OBST ID='Floor slab 00', XB=30.4,35.6,24.6,24.8,44.2,44.4, SURF_ID='Floor slab'/ 
&OBST ID='Floor slab 00', XB=31.4,35.6,24.4,24.6,44.2,44.4, SURF_ID='Floor slab'/ 
! ... 175 like lines cut
&OBST ID='Internal wall 00.2', XB=27.0,28.2,25.6,25.8,44.4,48.2, SURF_ID='Wall'/ 
&OBST ID='Internal wall 00.2', XB=27.0,29.4,25.4,25.6,44.4,48.2, SURF_ID='Wall'/ 
&OBST ID='Internal wall 00.2', XB=28.2,30.6,25.2,25.4,44.4,48.2, SURF_ID='Wall'/ 
&OBST ID='Internal wall 00.2', XB=29.4,31.6,25.0,25.2,44.4,48.2, SURF_ID='Wall'/ 
&OBST ID='Internal wall 00.2', XB=30.4,32.8,24.8,25.0,44.4,48.2, SURF_ID='Wall'/ 
&OBST ID='Internal wall 00.2', XB=31.6,33.4,24.6,24.8,44.4,48.2, SURF_ID='Wall'/ 
&OBST ID='Internal wall 00.2', XB=32.8,33.4,24.4,24.6,44.4,48.2, SURF_ID='Wall'/ 
&OBST ID='Internal wall 00.2', XB=27.0,27.0,25.8,26.0,44.4,48.2, SURF_ID='Wall'/ 
&OBST ID='Screen cafe and reception', XB=44.8,48.4,32.4,32.4,44.4,45.4, SURF_ID='Screen'/ 
&OBST ID='Screen cafe and reception', XB=44.8,44.8,32.4,34.8,44.4,45.4, SURF_ID='Screen'/ 
&OBST ID='Screen cafe and reception', XB=48.4,55.0,32.4,32.4,44.4,45.4, SURF_ID='Screen'/ 
&OBST ID='Screen cafe and reception', XB=44.8,48.4,32.4,32.4,46.6,48.2, SURF_ID='Screen'/ 
&OBST ID='Screen cafe and reception', XB=44.8,44.8,32.4,34.8,46.6,48.2, SURF_ID='Screen'/ 
&OBST ID='Screen cafe and reception', XB=48.4,55.0,32.4,32.4,46.6,48.2, SURF_ID='Screen'/ 
&OBST ID='Obstruction', XB=27.0,28.0,36.4,36.6,44.4,48.2, SURF_ID='Wall'/ 
&OBST ID='Obstruction', XB=35.6,36.0,28.4,28.4,48.2,49.2, SURF_ID='Screen'/ 
&OBST ID='Obstruction', XB=36.0,36.8,28.2,28.2,48.2,49.2, SURF_ID='Screen'/ 
&OBST ID='Obstruction', XB=36.8,37.8,28.0,28.0,48.2,49.2, SURF_ID='Screen'/ 
&OBST ID='Obstruction', XB=37.8,38.2,27.8,27.8,48.2,49.2, SURF_ID='Screen'/ 
&OBST ID='Obstruction', XB=36.0,36.0,28.2,28.4,48.2,49.2, SURF_ID='Screen'/ 
&OBST ID='Obstruction', XB=36.8,36.8,28.0,28.2,48.2,49.2, SURF_ID='Screen'/ 
&OBST ID='Obstruction', XB=37.8,37.8,27.8,28.0,48.2,49.2, SURF_ID='Screen'/ 
&OBST ID='Obstruction', XB=32.8,33.2,29.0,29.0,48.2,49.2, SURF_ID='Screen'/ 
&OBST ID='Obstruction', XB=33.2,34.2,28.8,28.8,48.2,49.2, SURF_ID='Screen'/ 
&OBST ID='Obstruction', XB=34.2,35.0,28.6,28.6,48.2,49.2, SURF_ID='Screen'/ 
&OBST ID='Obstruction', XB=35.0,35.6,28.4,28.4,48.2,49.2, SURF_ID='Screen'/ 
&OBST ID='Obstruction', XB=33.2,33.2,28.8,29.0,48.2,49.2, SURF_ID='Screen'/ 
&OBST ID='Obstruction', XB=34.2,34.2,28.6,28.8,48.2,49.2, SURF_ID='Screen'/ 
&OBST ID='Obstruction', XB=35.0,35.0,28.4,28.6,48.2,49.2, SURF_ID='Screen'/ 
&OBST ID='Obstruction', XB=45.4,45.8,28.2,29.6,52.0,52.2, SURF_ID='Stair'/ 
&OBST ID='Obstruction', XB=45.0,45.4,28.2,29.6,52.0,52.4, SURF_ID='Stair'/ 
&OBST ID='Obstruction', XB=44.6,45.0,28.2,29.6,52.2,52.6, SURF_ID='Stair'/ 
&OBST ID='Obstruction', XB=44.2,44.6,28.2,29.6,52.4,52.8, SURF_ID='Stair'/ 
&OBST ID='Obstruction', XB=43.8,44.2,28.2,29.6,52.6,53.0, SURF_ID='Stair'/ 
&OBST ID='Obstruction', XB=43.4,43.8,28.2,29.6,52.8,53.2, SURF_ID='Stair'/ 
&OBST ID='Obstruction', XB=43.0,43.4,28.2,29.6,53.0,53.4, SURF_ID='Stair'/ 
&OBST ID='Obstruction', XB=42.6,43.0,28.2,29.6,53.2,53.6, SURF_ID='Stair'/ 
&OBST ID='Obstruction', XB=42.2,42.6,28.2,29.6,53.4,53.8, SURF_ID='Stair'/ 
&OBST ID='Obstruction', XB=41.8,42.2,28.2,29.6,53.6,54.0, SURF_ID='Stair'/ 
&OBST ID='Obstruction', XB=41.4,41.8,28.2,29.6,53.8,54.2, SURF_ID='Stair'/ 
&OBST ID='Obstruction', XB=41.0,41.4,28.2,29.6,54.0,54.4, SURF_ID='Stair'/ 
&OBST ID='Obstruction', XB=40.6,41.0,28.2,29.6,54.2,54.6, SURF_ID='Stair'/ 
&OBST ID='Obstruction', XB=40.2,40.6,28.2,29.6,54.4,54.8, SURF_ID='Stair'/ 
&OBST ID='Obstruction', XB=39.8,40.2,28.2,29.6,54.6,55.0, SURF_ID='Stair'/ 
&OBST ID='Obstruction', XB=39.4,39.8,28.2,29.6,54.8,55.2, SURF_ID='Stair'/ 
&OBST ID='Obstruction', XB=39.0,39.4,28.2,29.6,55.0,55.4, SURF_ID='Stair'/ 
&OBST ID='Obstruction', XB=38.6,39.0,28.2,29.6,55.2,55.6, SURF_ID='Stair'/ 
&OBST ID='Obstruction', XB=38.2,38.6,28.2,29.6,55.4,55.8, SURF_ID='Stair'/ 
&OBST ID='Obstruction', XB=45.4,45.8,28.0,28.2,52.0,53.2, SURF_ID='Stair'/ 
! ... 485 like lines cut
&OBST ID='Obstruction', XB=35.6,35.6,24.0,24.2,55.8,59.6, SURF_ID='Wall'/ 
&OBST ID='Obstruction', XB=27.0,27.8,25.6,25.8,55.8,59.6, SURF_ID='Wall'/ 
&OBST ID='Obstruction', XB=27.8,28.8,25.4,25.6,55.8,59.6, SURF_ID='Wall'/ 
&OBST ID='Obstruction', XB=28.8,29.8,25.2,25.4,55.8,59.6, SURF_ID='Wall'/ 
&OBST ID='Obstruction', XB=29.8,30.8,25.0,25.2,55.8,59.6, SURF_ID='Wall'/ 
&OBST ID='Obstruction', XB=30.8,32.0,24.8,25.0,55.8,59.6, SURF_ID='Wall'/ 
&OBST ID='Obstruction', XB=32.0,33.0,24.6,24.8,55.8,59.6, SURF_ID='Wall'/ 
&OBST ID='Obstruction', XB=33.0,34.0,24.4,24.6,55.8,59.6, SURF_ID='Wall'/ 
&OBST ID='Obstruction', XB=34.0,35.0,24.2,24.4,55.8,59.6, SURF_ID='Wall'/ 
&OBST ID='Obstruction', XB=35.0,35.6,24.0,24.2,55.8,59.6, SURF_ID='Wall'/ 
&OBST ID='Obstruction', XB=45.4,45.8,28.2,29.6,59.6,59.8, SURF_ID='Stair'/ 
&OBST ID='Obstruction', XB=45.0,45.4,28.2,29.6,59.6,60.0, SURF_ID='Stair'/ 
&OBST ID='Obstruction', XB=44.6,45.0,28.2,29.6,59.8,60.2, SURF_ID='Stair'/ 
&OBST ID='Obstruction', XB=44.2,44.6,28.2,29.6,60.0,60.4, SURF_ID='Stair'/ 
&OBST ID='Obstruction', XB=43.8,44.2,28.2,29.6,60.2,60.6, SURF_ID='Stair'/ 
&OBST ID='Obstruction', XB=43.4,43.8,28.2,29.6,60.4,60.8, SURF_ID='Stair'/ 
&OBST ID='Obstruction', XB=43.0,43.4,28.2,29.6,60.6,61.0, SURF_ID='Stair'/ 
&OBST ID='Obstruction', XB=42.6,43.0,28.2,29.6,60.8,61.2, SURF_ID='Stair'/ 
&OBST ID='Obstruction', XB=42.2,42.6,28.2,29.6,61.0,61.4, SURF_ID='Stair'/ 
&OBST ID='Obstruction', XB=41.8,42.2,28.2,29.6,61.2,61.6, SURF_ID='Stair'/ 
&OBST ID='Obstruction', XB=41.4,41.8,28.2,29.6,61.4,61.8, SURF_ID='Stair'/ 
&OBST ID='Obstruction', XB=41.0,41.4,28.2,29.6,61.6,62.0, SURF_ID='Stair'/ 
&OBST ID='Obstruction', XB=40.6,41.0,28.2,29.6,61.8,62.2, SURF_ID='Stair'/ 
&OBST ID='Obstruction', XB=40.2,40.6,28.2,29.6,62.0,62.4, SURF_ID='Stair'/ 
&OBST ID='Obstruction', XB=39.8,40.2,28.2,29.6,62.2,62.6, SURF_ID='Stair'/ 
&OBST ID='Obstruction', XB=39.4,39.8,28.2,29.6,62.4,62.8, SURF_ID='Stair'/ 
&OBST ID='Obstruction', XB=39.0,39.4,28.2,29.6,62.6,63.0, SURF_ID='Stair'/ 
&OBST ID='Obstruction', XB=38.6,39.0,28.2,29.6,62.8,63.2, SURF_ID='Stair'/ 
&OBST ID='Obstruction', XB=38.2,38.6,28.2,29.6,63.0,63.4, SURF_ID='Stair'/ 
&OBST ID='Obstruction', XB=45.4,45.8,28.0,28.2,59.6,60.8, SURF_ID='Stair'/ 
! ... 489 like lines cut
&OBST ID='Obstruction', XB=30.6,31.2,26.0,26.2,59.6,63.4, SURF_ID='Wall'/ 
&OBST ID='Obstruction', XB=30.6,32.2,25.8,26.0,59.6,63.4, SURF_ID='Wall'/ 
&OBST ID='Obstruction', XB=31.2,33.4,25.6,25.8,59.6,63.4, SURF_ID='Wall'/ 
&OBST ID='Obstruction', XB=32.2,34.4,25.4,25.6,59.6,63.4, SURF_ID='Wall'/ 
&OBST ID='Obstruction', XB=33.4,35.6,25.2,25.4,59.6,63.4, SURF_ID='Wall'/ 
&OBST ID='Obstruction', XB=34.4,35.6,25.0,25.2,59.6,63.4, SURF_ID='Wall'/ 
&OBST ID='Obstruction', XB=35.4,35.6,24.8,25.0,59.6,63.4, SURF_ID='Wall'/ 
&OBST ID='Obstruction', XB=35.6,36.6,25.0,25.2,59.6,63.4, SURF_ID='Wall'/ 
&OBST ID='Obstruction', XB=35.6,37.6,24.8,25.0,59.6,63.4, SURF_ID='Wall'/ 
&OBST ID='Obstruction', XB=36.6,38.2,24.6,24.8,59.6,63.4, SURF_ID='Wall'/ 
&OBST ID='Obstruction', XB=37.6,38.2,24.4,24.6,59.6,63.4, SURF_ID='Wall'/ 
&OBST ID='Obstruction', XB=27.0,28.0,25.6,25.8,63.4,67.2, SURF_ID='Wall'/ 
&OBST ID='Obstruction', XB=27.8,29.0,25.4,25.6,63.4,67.2, SURF_ID='Wall'/ 
&OBST ID='Obstruction', XB=29.0,30.2,25.2,25.4,63.4,67.2, SURF_ID='Wall'/ 
&OBST ID='Obstruction', XB=30.2,31.2,25.0,25.2,63.4,67.2, SURF_ID='Wall'/ 
&OBST ID='Obstruction', XB=31.2,31.8,24.8,25.0,63.4,67.2, SURF_ID='Wall'/ 
&OBST ID='Obstruction', XB=45.6,46.0,27.8,29.2,67.2,67.4, SURF_ID='Stair'/ 
&OBST ID='Obstruction', XB=45.2,45.6,27.8,29.2,67.2,67.6, SURF_ID='Stair'/ 
&OBST ID='Obstruction', XB=44.8,45.2,27.8,29.2,67.4,67.8, SURF_ID='Stair'/ 
&OBST ID='Obstruction', XB=44.4,44.8,27.8,29.2,67.6,68.0, SURF_ID='Stair'/ 
&OBST ID='Obstruction', XB=44.0,44.4,27.8,29.2,67.8,68.2, SURF_ID='Stair'/ 
&OBST ID='Obstruction', XB=43.6,44.0,27.8,29.2,68.0,68.4, SURF_ID='Stair'/ 
&OBST ID='Obstruction', XB=43.2,43.6,27.8,29.2,68.2,68.6, SURF_ID='Stair'/ 
&OBST ID='Obstruction', XB=42.8,43.2,27.8,29.2,68.4,68.8, SURF_ID='Stair'/ 
&OBST ID='Obstruction', XB=42.4,42.8,27.8,29.2,68.6,69.0, SURF_ID='Stair'/ 
&OBST ID='Obstruction', XB=42.0,42.4,27.8,29.2,68.8,69.2, SURF_ID='Stair'/ 
&OBST ID='Obstruction', XB=41.6,42.0,27.8,29.2,69.0,69.4, SURF_ID='Stair'/ 
&OBST ID='Obstruction', XB=41.2,41.6,27.8,29.2,69.2,69.6, SURF_ID='Stair'/ 
&OBST ID='Obstruction', XB=40.8,41.2,27.8,29.2,69.4,69.8, SURF_ID='Stair'/ 
&OBST ID='Obstruction', XB=40.4,40.8,27.8,29.2,69.6,70.0, SURF_ID='Stair'/ 
&OBST ID='Obstruction', XB=40.0,40.4,27.8,29.2,69.8,70.2, SURF_ID='Stair'/ 
&OBST ID='Obstruction', XB=39.6,40.0,27.8,29.2,70.0,70.4, SURF_ID='Stair'/ 
&OBST ID='Obstruction', XB=39.2,39.6,27.8,29.2,70.2,70.6, SURF_ID='Stair'/ 
&OBST ID='Obstruction', XB=38.8,39.2,27.8,29.2,70.4,70.8, SURF_ID='Stair'/ 
&OBST ID='Obstruction', XB=38.4,38.8,27.8,29.2,70.6,71.0, SURF_ID='Stair'/ 
&OBST ID='Obstruction', XB=45.6,46.0,27.6,27.8,67.2,68.4, SURF_ID='Stair'/ 
! ... 483 like lines cut
&OBST ID='Obstruction', XB=35.6,36.0,24.8,25.0,67.2,71.0, SURF_ID='Wall'/ 
&OBST ID='Obstruction', XB=35.8,37.0,24.6,24.8,67.2,71.0, SURF_ID='Wall'/ 
&OBST ID='Obstruction', XB=36.8,38.0,24.4,24.6,67.2,71.0, SURF_ID='Wall'/ 
&OBST ID='Obstruction', XB=37.8,38.4,24.2,24.4,67.2,71.0, SURF_ID='Wall'/ 
&OBST ID='Obstruction', XB=35.6,36.0,24.2,24.4,71.0,74.8, SURF_ID='Wall'/ 
&OBST ID='Obstruction', XB=36.0,37.0,24.0,24.2,71.0,74.8, SURF_ID='Wall'/ 
&OBST ID='Obstruction', XB=37.0,37.4,23.8,24.0,71.0,74.8, SURF_ID='Wall'/ 
&OBST ID='Obstruction', XB=27.0,27.2,26.2,26.4,71.0,74.8, SURF_ID='Wall'/ 
&OBST ID='Obstruction', XB=27.0,28.0,26.4,26.6,67.2,71.0, SURF_ID='Wall'/ 
&OBST ID='Obstruction', XB=27.2,28.0,26.0,26.2,71.0,74.8, SURF_ID='Wall'/ 
&OBST ID='Obstruction', XB=27.8,29.0,26.2,26.4,67.2,71.0, SURF_ID='Wall'/ 
&OBST ID='Obstruction', XB=28.0,29.0,25.8,26.0,71.0,74.8, SURF_ID='Wall'/ 
&OBST ID='Obstruction', XB=28.8,30.0,26.0,26.2,67.2,71.0, SURF_ID='Wall'/ 
&OBST ID='Obstruction', XB=29.0,29.8,25.6,25.8,71.0,74.8, SURF_ID='Wall'/ 
&OBST ID='Obstruction', XB=29.8,30.8,25.4,25.6,71.0,74.8, SURF_ID='Wall'/ 
&OBST ID='Obstruction', XB=29.8,31.0,25.8,26.0,67.2,71.0, SURF_ID='Wall'/ 
&OBST ID='Obstruction', XB=30.8,31.6,25.2,25.4,71.0,74.8, SURF_ID='Wall'/ 
&OBST ID='Obstruction', XB=30.8,32.0,25.6,25.8,67.2,71.0, SURF_ID='Wall'/ 
&OBST ID='Obstruction', XB=31.6,32.6,25.0,25.2,71.0,74.8, SURF_ID='Wall'/ 
&OBST ID='Obstruction', XB=31.8,33.0,25.4,25.6,67.2,71.0, SURF_ID='Wall'/ 
! ... 16 like lines cut
&OBST ID='Glazing 01', XB=35.6,35.8,24.0,24.2,48.2,52.0, SURF_ID='Glazing'/ 
&OBST ID='Glazing 01', XB=35.6,36.6,23.8,24.0,48.2,52.0, SURF_ID='Glazing'/ 
&OBST ID='Glazing 01', XB=36.6,37.4,23.6,23.8,48.2,52.0, SURF_ID='Glazing'/ 
&OBST ID='Glazing 01', XB=37.4,38.4,23.4,23.6,48.2,52.0, SURF_ID='Glazing'/ 
&OBST ID='Glazing 01', XB=38.4,39.0,23.2,23.4,48.2,52.0, SURF_ID='Glazing'/ 
&OBST ID='Glazing 01', XB=38.8,39.0,23.4,24.4,48.2,52.0, SURF_ID='Glazing'/ 
&OBST ID='Glazing 01', XB=38.8,46.6,24.4,24.6,48.2,52.0, SURF_ID='Glazing'/ 
&OBST ID='Glazing 01', XB=46.6,48.0,24.6,24.8,48.2,52.0, SURF_ID='Glazing'/ 
&OBST ID='Glazing 01', XB=48.0,48.4,24.8,25.0,48.2,52.0, SURF_ID='Glazing'/ 
&OBST ID='Glazing 01', XB=48.4,49.2,24.8,25.0,48.2,52.0, SURF_ID='Glazing'/ 
&OBST ID='Glazing 01', XB=49.2,50.6,25.0,25.2,48.2,52.0, SURF_ID='Glazing'/ 
&OBST ID='Glazing 01', XB=50.6,51.8,25.2,25.4,48.2,52.0, SURF_ID='Glazing'/ 
&OBST ID='Glazing 01', XB=51.8,53.0,25.4,25.6,48.2,52.0, SURF_ID='Glazing'/ 
&OBST ID='Glazing 01', XB=53.0,54.4,25.6,25.8,48.2,52.0, SURF_ID='Glazing'/ 
&OBST ID='Glazing 01', XB=54.4,55.2,25.8,26.0,48.2,52.0, SURF_ID='Glazing'/ 
&OBST ID='Glazing 01', XB=55.0,55.2,26.0,32.4,48.2,52.0, SURF_ID='Glazing'/ 
&OBST ID='Glazing 01', XB=30.0,30.4,25.2,25.4,48.2,52.0, SURF_ID='Glazing'/ 
&OBST ID='Glazing 01', XB=30.4,31.4,25.0,25.2,48.2,52.0, SURF_ID='Glazing'/ 
&OBST ID='Glazing 01', XB=31.2,32.2,24.8,25.0,48.2,52.0, SURF_ID='Glazing'/ 
&OBST ID='Glazing 01', XB=32.2,33.0,24.6,24.8,48.2,52.0, SURF_ID='Glazing'/ 
&OBST ID='Glazing 01', XB=33.0,34.0,24.4,24.6,48.2,52.0, SURF_ID='Glazing'/ 
&OBST ID='Glazing 01', XB=34.0,34.8,24.2,24.4,48.2,52.0, SURF_ID='Glazing'/ 
&OBST ID='Glazing 01', XB=34.8,35.6,24.0,24.2,48.2,52.0, SURF_ID='Glazing'/ 
&OBST ID='Internal wall 01.1', XB=27.0,28.0,25.6,25.8,48.2,52.0, SURF_ID='Wall'/ 
&OBST ID='Internal wall 01.1', XB=27.0,29.0,25.4,25.6,48.2,52.0, SURF_ID='Wall'/ 
&OBST ID='Internal wall 01.1', XB=27.8,29.6,25.2,25.4,48.2,52.0, SURF_ID='Wall'/ 
&OBST ID='Internal wall 01.1', XB=29.0,29.6,25.0,25.2,48.2,52.0, SURF_ID='Wall'/ 
&OBST ID='Internal wall 0.1.2', XB=48.4,48.6,37.0,42.0,48.2,52.0, SURF_ID='Wall'/ 
&OBST ID='Internal wall 0.1.2', XB=55.2,56.8,32.6,32.8,48.2,52.0, SURF_ID='Wall'/ 
&OBST ID='Internal wall 0.1.2', XB=56.6,56.8,32.8,42.0,48.2,52.0, SURF_ID='Wall'/ 
&OBST ID='Internal wall 02.1', XB=27.0,27.4,26.0,26.2,52.0,55.8, SURF_ID='Wall'/ 
&OBST ID='Internal wall 02.1', XB=27.4,28.2,25.8,26.0,52.0,55.8, SURF_ID='Wall'/ 
&OBST ID='Internal wall 02.1', XB=28.0,28.8,25.6,25.8,52.0,55.8, SURF_ID='Wall'/ 
&OBST ID='Internal wall 02.1', XB=28.8,29.6,25.4,25.6,52.0,55.8, SURF_ID='Wall'/ 
&OBST ID='Internal wall 02.1', XB=29.6,30.4,25.2,25.4,52.0,55.8, SURF_ID='Wall'/ 
&OBST ID='Internal wall 02.1', XB=30.2,31.0,25.0,25.2,52.0,55.8, SURF_ID='Wall'/ 
&OBST ID='Internal wall 02.1', XB=31.0,31.4,24.8,25.0,52.0,55.8, SURF_ID='Wall'/ 
&OBST ID='Internal wall 02.1', XB=27.0,27.0,26.2,33.4,52.0,55.8, SURF_ID='Wall'/ 
&OBST ID='Internal wall 02.2', XB=35.6,35.8,24.0,24.2,52.0,55.8, SURF_ID='Wall'/ 
&OBST ID='Internal wall 02.2', XB=35.6,36.8,23.8,24.0,52.0,55.8, SURF_ID='Wall'/ 
&OBST ID='Internal wall 02.2', XB=35.8,37.8,23.6,23.8,52.0,55.8, SURF_ID='Wall'/ 
&OBST ID='Internal wall 02.2', XB=36.8,38.6,23.4,23.6,52.0,55.8, SURF_ID='Wall'/ 
&OBST ID='Internal wall 02.2', XB=37.6,38.6,23.2,23.4,52.0,55.8, SURF_ID='Wall'/ 
! ... 7 like lines cut
&OBST ID='Screen 03', XB=38.4,45.8,30.6,30.6,55.8,56.8, SURF_ID='Screen'/ 
&OBST ID='Screen 03', XB=45.8,45.8,24.6,30.6,55.8,56.8, SURF_ID='Screen'/ 
&OBST ID='Screen 03', XB=38.4,45.8,30.6,30.6,63.4,64.4, SURF_ID='Screen'/ 
&OBST ID='Screen 03', XB=45.8,45.8,24.6,30.6,63.4,64.4, SURF_ID='Screen'/ 
&OBST ID='Internal wall 03.2', XB=38.4,38.8,23.2,24.4,55.8,59.6, SURF_ID='Wall'/ 
&OBST ID='Internal wall 03.2', XB=38.4,39.0,24.4,24.8,55.8,59.6, SURF_ID='Wall'/ 
&OBST ID='Screen 04', XB=38.6,45.8,30.6,30.6,59.6,60.6, SURF_ID='Screen'/ 
&OBST ID='Screen 04', XB=38.6,38.6,28.0,30.6,59.6,60.6, SURF_ID='Screen'/ 
&OBST ID='Screen 04', XB=38.6,45.8,30.6,30.6,67.2,68.2, SURF_ID='Screen'/ 
&OBST ID='Screen 04', XB=38.6,38.6,30.0,30.6,67.2,68.2, SURF_ID='Screen'/ 
&OBST ID='Screen 04', XB=38.6,38.6,28.0,30.0,67.2,68.2, SURF_ID='Screen'/ 
&OBST ID='Screen 07', XB=38.8,45.8,30.6,30.6,71.0,73.0, SURF_ID='Screen'/ 
&OBST ID='Screen 07', XB=45.8,45.8,24.6,30.6,71.0,73.0, SURF_ID='Screen'/ 
&OBST ID='Fire scenario 2-1', XB=40.3,41.0,33.3,34.0,67.2,67.3, SURF_IDS='Fire scenario 2-1','ADIABATIC','ADIABATIC'/ 
&OBST ID='Fire scenario 2-2', XB=40.3,41.0,34.0,34.7,67.2,67.3, SURF_IDS='Fire scenario 2-2','ADIABATIC','ADIABATIC'/ 
&OBST ID='Fire scenario 2-3', XB=41.0,41.7,33.3,34.0,67.2,67.3, SURF_IDS='Fire scenario 2-3','ADIABATIC','ADIABATIC'/ 
&OBST ID='Fire scenario 2-4', XB=41.0,41.7,34.0,34.7,67.2,67.3, SURF_IDS='Fire scenario 2-4','ADIABATIC','ADIABATIC'/ 
&OBST ID='Internal wall 00', XB=36.6,37.6,34.8,35.2,44.4,46.6, SURF_ID='Wall', CTRL_ID='invert'/ 
&OBST ID='Internal wall 00', XB=31.2,32.6,32.2,32.6,44.4,46.6, SURF_ID='Wall', CTRL_ID='invert'/ 
&OBST ID='Internal wall 00', XB=34.8,35.6,35.2,35.6,44.4,46.6, SURF_ID='Wall', CTRL_ID='invert'/ 
&OBST ID='Internal wall 00', XB=27.6,28.0,35.0,35.8,44.4,46.6, SURF_ID='Wall', CTRL_ID='invert'/ 
&OBST ID='Internal wall 00', XB=29.0,29.8,36.0,36.4,44.4,46.6, SURF_ID='Wall', CTRL_ID='invert'/ 
&OBST ID='Internal wall 00', XB=35.6,36.2,35.2,35.6,44.4,48.2, SURF_ID='Wall'/ 
&OBST ID='Internal wall 00', XB=35.8,36.6,34.8,35.2,44.4,48.2, SURF_ID='Wall'/ 
&OBST ID='Internal wall 00', XB=36.6,37.6,34.8,35.2,46.6,48.2, SURF_ID='Wall'/ 
&OBST ID='Internal wall 00', XB=37.6,48.4,34.8,35.2,44.4,48.2, SURF_ID='Wall'/ 
&OBST ID='Internal wall 00', XB=48.2,48.4,35.2,36.8,44.4,48.2, SURF_ID='Wall'/ 
&OBST ID='Internal wall 00', XB=48.4,48.6,34.8,36.4,44.4,48.2, SURF_ID='Wall'/ 
&OBST ID='Internal wall 00', XB=48.4,49.8,36.4,36.8,44.4,48.2, SURF_ID='Wall'/ 
&OBST ID='Internal wall 00', XB=49.4,49.8,36.8,41.0,44.4,48.2, SURF_ID='Wall'/ 
&OBST ID='Internal wall 00', XB=49.4,52.8,41.0,41.4,44.4,48.2, SURF_ID='Wall'/ 
&OBST ID='Internal wall 00', XB=52.4,52.8,34.4,41.0,44.4,48.2, SURF_ID='Wall'/ 
&OBST ID='Internal wall 00', XB=52.4,57.6,34.0,34.4,44.4,48.2, SURF_ID='Wall'/ 
&OBST ID='Internal wall 00', XB=55.0,55.4,32.2,32.4,44.4,48.2, SURF_ID='Wall'/ 
&OBST ID='Internal wall 00', XB=55.0,57.6,32.4,32.8,44.4,48.2, SURF_ID='Wall'/ 
&OBST ID='Internal wall 00', XB=57.2,57.6,33.6,34.0,44.4,48.2, SURF_ID='Wall'/ 
&OBST ID='Internal wall 00', XB=57.2,57.6,32.8,33.6,46.6,48.2, SURF_ID='Wall'/ 
&OBST ID='Internal wall 00', XB=27.6,28.0,32.6,35.0,44.4,48.2, SURF_ID='Wall'/ 
&OBST ID='Internal wall 00', XB=27.6,28.0,35.8,36.0,44.4,48.2, SURF_ID='Wall'/ 
&OBST ID='Internal wall 00', XB=27.6,28.0,35.0,35.8,46.6,48.2, SURF_ID='Wall'/ 
&OBST ID='Internal wall 00', XB=27.6,29.0,36.0,36.4,44.4,48.2, SURF_ID='Wall'/ 
&OBST ID='Internal wall 00', XB=27.6,31.2,32.2,32.6,44.4,48.2, SURF_ID='Wall'/ 
! ... 9 like lines cut
&OBST ID='Glazing 00', XB=35.6,35.8,24.0,24.2,44.4,48.2, SURF_ID='Glazing'/ 
&OBST ID='Glazing 00', XB=35.8,36.8,23.8,24.0,44.4,48.2, SURF_ID='Glazing'/ 
&OBST ID='Glazing 00', XB=36.6,37.6,23.6,23.8,44.4,48.2, SURF_ID='Glazing'/ 
&OBST ID='Glazing 00', XB=37.6,38.4,23.4,23.6,44.4,48.2, SURF_ID='Glazing'/ 
&OBST ID='Glazing 00', XB=38.4,39.0,23.2,23.4,44.4,48.2, SURF_ID='Glazing'/ 
&OBST ID='Glazing 00', XB=38.8,39.0,23.4,24.4,44.4,48.2, SURF_ID='Glazing'/ 
&OBST ID='Glazing 00', XB=38.8,41.0,24.4,24.6,44.4,48.2, SURF_ID='Glazing'/ 
&OBST ID='Glazing 00', XB=41.0,44.0,24.4,24.6,46.6,48.2, SURF_ID='Glazing'/ 
&OBST ID='Glazing 00', XB=44.0,46.6,24.4,24.6,44.4,48.2, SURF_ID='Glazing'/ 
&OBST ID='Glazing 00', XB=46.6,48.0,24.6,24.8,44.4,48.2, SURF_ID='Glazing'/ 
&OBST ID='Glazing 00', XB=48.0,48.4,24.8,25.0,44.4,48.2, SURF_ID='Glazing'/ 
&OBST ID='Glazing 00', XB=48.4,49.2,24.8,25.0,44.4,48.2, SURF_ID='Glazing'/ 
&OBST ID='Glazing 00', XB=49.2,50.6,25.0,25.2,44.4,48.2, SURF_ID='Glazing'/ 
&OBST ID='Glazing 00', XB=50.6,51.8,25.2,25.4,44.4,48.2, SURF_ID='Glazing'/ 
&OBST ID='Glazing 00', XB=51.8,53.0,25.4,25.6,44.4,48.2, SURF_ID='Glazing'/ 
&OBST ID='Glazing 00', XB=53.0,54.4,25.6,25.8,44.4,48.2, SURF_ID='Glazing'/ 
&OBST ID='Glazing 00', XB=54.4,55.2,25.8,26.0,44.4,48.2, SURF_ID='Glazing'/ 
&OBST ID='Glazing 00', XB=55.0,55.2,26.0,30.8,44.4,48.2, SURF_ID='Glazing'/ 
&OBST ID='Glazing 00', XB=55.0,55.2,30.8,32.2,46.6,48.2, SURF_ID='Glazing'/ 
&OBST ID='Glazing 00', XB=33.8,34.2,24.4,24.6,44.4,48.2, SURF_ID='Glazing'/ 
&OBST ID='Glazing 00', XB=34.2,35.0,24.2,24.4,44.4,48.2, SURF_ID='Glazing'/ 
&OBST ID='Glazing 00', XB=35.0,35.6,24.0,24.2,44.4,48.2, SURF_ID='Glazing'/ 
&OBST ID='Internal walls 01', XB=48.4,48.8,33.0,33.8,48.2,50.4, SURF_ID='Wall', CTRL_ID='invert'/ 
&OBST ID='Internal walls 01', XB=46.2,47.6,35.0,35.4,48.2,50.4, SURF_ID='Wall', CTRL_ID='invert'/ 
&OBST ID='Internal walls 01', XB=36.6,38.0,35.0,35.4,48.2,50.4, SURF_ID='Wall', CTRL_ID='invert'/ 
&OBST ID='Internal walls 01', XB=31.0,32.6,35.0,35.4,48.2,50.4, SURF_ID='Wall', CTRL_ID='invert'/ 
&OBST ID='Internal walls 01', XB=29.6,30.0,33.0,34.8,48.2,50.4, SURF_ID='Wall', CTRL_ID='invert'/ 
&OBST ID='Internal walls 01', XB=35.6,36.6,35.0,35.4,48.2,52.0, SURF_ID='Wall'/ 
&OBST ID='Internal walls 01', XB=36.6,38.0,35.0,35.4,50.4,52.0, SURF_ID='Wall'/ 
&OBST ID='Internal walls 01', XB=38.0,46.2,35.0,35.4,48.2,52.0, SURF_ID='Wall'/ 
&OBST ID='Internal walls 01', XB=46.2,47.6,35.0,35.4,50.4,52.0, SURF_ID='Wall'/ 
&OBST ID='Internal walls 01', XB=47.6,48.4,35.0,35.4,48.2,52.0, SURF_ID='Wall'/ 
&OBST ID='Internal walls 01', XB=48.4,48.4,32.4,33.0,48.2,52.0, SURF_ID='Wall'/ 
&OBST ID='Internal walls 01', XB=48.4,48.4,33.8,35.0,48.2,52.0, SURF_ID='Wall'/ 
&OBST ID='Internal walls 01', XB=48.4,48.4,33.0,33.8,50.4,52.0, SURF_ID='Wall'/ 
&OBST ID='Internal walls 01', XB=48.4,48.8,32.8,33.0,48.2,52.0, SURF_ID='Wall'/ 
&OBST ID='Internal walls 01', XB=48.4,48.8,33.8,35.4,48.2,52.0, SURF_ID='Wall'/ 
&OBST ID='Internal walls 01', XB=48.4,48.8,33.0,33.8,50.4,52.0, SURF_ID='Wall'/ 
&OBST ID='Internal walls 01', XB=48.4,55.2,32.4,32.8,48.2,52.0, SURF_ID='Wall'/ 
&OBST ID='Internal walls 01', XB=29.6,30.0,25.0,33.0,48.2,52.0, SURF_ID='Wall'/ 
&OBST ID='Internal walls 01', XB=29.6,30.0,34.8,35.0,48.2,52.0, SURF_ID='Wall'/ 
&OBST ID='Internal walls 01', XB=29.6,30.0,33.0,34.8,50.4,52.0, SURF_ID='Wall'/ 
&OBST ID='Internal walls 01', XB=29.6,31.0,35.0,35.4,48.2,52.0, SURF_ID='Wall'/ 
&OBST ID='Internal walls 01', XB=31.0,32.6,35.0,35.4,50.4,52.0, SURF_ID='Wall'/ 
&OBST ID='Internal walls 01', XB=32.6,35.6,35.0,35.4,48.2,52.0, SURF_ID='Wall'/ 
&OBST ID='Internal walls 02', XB=48.2,48.6,33.2,34.6,52.0,54.2, SURF_ID='Wall', CTRL_ID='invert'/ 
&OBST ID='Internal walls 02', XB=46.0,47.4,35.0,35.4,52.0,54.2, SURF_ID='Wall', CTRL_ID='invert'/ 
&OBST ID='Internal walls 02', XB=30.4,31.2,32.8,33.2,52.0,54.2, SURF_ID='Wall', CTRL_ID='invert'/ 
&OBST ID='Internal walls 02', XB=36.4,37.8,35.0,35.4,52.0,54.2, SURF_ID='Wall', CTRL_ID='invert'/ 
&OBST ID='Internal walls 02', XB=34.6,35.4,35.0,35.4,52.0,54.2, SURF_ID='Wall', CTRL_ID='invert'/ 
&OBST ID='Internal walls 02', XB=29.4,29.8,33.8,34.8,52.0,54.2, SURF_ID='Wall', CTRL_ID='invert'/ 
&OBST ID='Internal walls 02', XB=35.6,36.4,35.0,35.4,52.0,55.8, SURF_ID='Wall'/ 
&OBST ID='Internal walls 02', XB=35.6,38.6,32.8,33.2,52.0,55.8, SURF_ID='Wall'/ 
&OBST ID='Internal walls 02', XB=36.4,37.8,35.0,35.4,54.2,55.8, SURF_ID='Wall'/ 
&OBST ID='Internal walls 02', XB=37.8,46.0,35.0,35.4,52.0,55.8, SURF_ID='Wall'/ 
&OBST ID='Internal walls 02', XB=38.2,38.6,24.4,32.8,52.0,55.8, SURF_ID='Wall'/ 
&OBST ID='Internal walls 02', XB=45.6,46.0,22.4,24.8,52.0,55.8, SURF_ID='Wall'/ 
&OBST ID='Internal walls 02', XB=45.6,46.6,22.0,22.2,52.0,55.8, SURF_ID='Wall'/ 
&OBST ID='Internal walls 02', XB=45.6,47.6,22.2,22.4,52.0,55.8, SURF_ID='Wall'/ 
&OBST ID='Internal walls 02', XB=46.0,47.4,35.0,35.4,54.2,55.8, SURF_ID='Wall'/ 
&OBST ID='Internal walls 02', XB=46.6,48.6,22.4,22.6,52.0,55.8, SURF_ID='Wall'/ 
&OBST ID='Internal walls 02', XB=47.4,48.6,35.0,35.4,52.0,55.8, SURF_ID='Wall'/ 
&OBST ID='Internal walls 02', XB=47.6,48.6,22.6,22.8,52.0,55.8, SURF_ID='Wall'/ 
&OBST ID='Internal walls 02', XB=48.2,48.6,22.8,33.2,52.0,55.8, SURF_ID='Wall'/ 
&OBST ID='Internal walls 02', XB=48.2,48.6,34.6,35.0,52.0,55.8, SURF_ID='Wall'/ 
&OBST ID='Internal walls 02', XB=48.2,48.6,33.2,34.6,54.2,55.8, SURF_ID='Wall'/ 
&OBST ID='Internal walls 02', XB=29.4,29.8,33.2,33.8,52.0,55.8, SURF_ID='Wall'/ 
&OBST ID='Internal walls 02', XB=29.4,29.8,34.8,35.0,52.0,55.8, SURF_ID='Wall'/ 
&OBST ID='Internal walls 02', XB=29.4,29.8,33.8,34.8,54.2,55.8, SURF_ID='Wall'/ 
&OBST ID='Internal walls 02', XB=29.4,30.4,32.8,33.2,52.0,55.8, SURF_ID='Wall'/ 
&OBST ID='Internal walls 02', XB=29.4,34.6,35.0,35.4,52.0,55.8, SURF_ID='Wall'/ 
! ... 6 like lines cut
&OBST ID='Internal walls 05', XB=48.2,48.6,33.8,34.6,63.4,65.6, SURF_ID='Wall', CTRL_ID='invert'/ 
&OBST ID='Internal walls 05', XB=48.2,48.6,31.4,32.2,63.4,65.6, SURF_ID='Wall', CTRL_ID='invert'/ 
&OBST ID='Internal walls 05', XB=45.8,47.2,35.0,35.4,63.4,65.6, SURF_ID='Wall', CTRL_ID='invert'/ 
&OBST ID='Internal walls 05', XB=31.6,32.0,28.6,29.4,63.4,65.6, SURF_ID='Wall', CTRL_ID='invert'/ 
&OBST ID='Internal walls 05', XB=36.2,37.6,35.0,35.4,63.4,65.6, SURF_ID='Wall', CTRL_ID='invert'/ 
&OBST ID='Internal walls 05', XB=34.2,35.0,34.6,35.0,63.4,65.6, SURF_ID='Wall', CTRL_ID='invert'/ 
&OBST ID='Internal walls 05', XB=31.6,32.0,25.2,28.6,63.4,67.2, SURF_ID='Wall'/ 
&OBST ID='Internal walls 05', XB=31.6,32.0,29.4,29.8,63.4,67.2, SURF_ID='Wall'/ 
&OBST ID='Internal walls 05', XB=31.6,32.0,28.6,29.4,65.6,67.2, SURF_ID='Wall'/ 
&OBST ID='Internal walls 05', XB=31.6,32.4,25.0,25.2,63.4,67.2, SURF_ID='Wall'/ 
&OBST ID='Internal walls 05', XB=31.6,33.4,24.8,25.0,63.4,67.2, SURF_ID='Wall'/ 
&OBST ID='Internal walls 05', XB=31.6,33.8,29.8,30.2,63.4,67.2, SURF_ID='Wall'/ 
&OBST ID='Internal walls 05', XB=32.4,34.4,24.6,24.8,63.4,67.2, SURF_ID='Wall'/ 
&OBST ID='Internal walls 05', XB=33.4,33.8,30.2,34.6,63.4,67.2, SURF_ID='Wall'/ 
&OBST ID='Internal walls 05', XB=33.4,34.2,34.6,35.0,63.4,67.2, SURF_ID='Wall'/ 
&OBST ID='Internal walls 05', XB=33.4,35.4,24.4,24.6,63.4,67.2, SURF_ID='Wall'/ 
&OBST ID='Internal walls 05', XB=34.2,35.0,34.6,35.0,65.6,67.2, SURF_ID='Wall'/ 
&OBST ID='Internal walls 05', XB=34.4,35.6,24.2,24.4,63.4,67.2, SURF_ID='Wall'/ 
&OBST ID='Internal walls 05', XB=35.0,35.6,34.6,35.0,63.4,67.2, SURF_ID='Wall'/ 
&OBST ID='Internal walls 05', XB=35.2,35.6,24.0,24.2,63.4,67.2, SURF_ID='Wall'/ 
&OBST ID='Internal walls 05', XB=35.4,35.6,35.0,35.4,63.4,67.2, SURF_ID='Wall'/ 
&OBST ID='Internal walls 05', XB=35.6,35.8,34.6,35.0,63.4,67.2, SURF_ID='Wall'/ 
&OBST ID='Internal walls 05', XB=35.6,36.2,24.2,24.4,63.4,67.2, SURF_ID='Wall'/ 
&OBST ID='Internal walls 05', XB=35.6,36.2,35.0,35.4,63.4,67.2, SURF_ID='Wall'/ 
&OBST ID='Internal walls 05', XB=35.6,37.2,24.0,24.2,63.4,67.2, SURF_ID='Wall'/ 
&OBST ID='Internal walls 05', XB=36.2,37.6,35.0,35.4,65.6,67.2, SURF_ID='Wall'/ 
! ... 18 like lines cut
&OBST ID='Internal wall 03.1', XB=48.2,48.6,31.4,32.2,55.8,58.0, SURF_ID='Wall', CTRL_ID='invert'/ 
&OBST ID='Internal wall 03.1', XB=48.2,48.6,33.4,34.8,55.8,58.0, SURF_ID='Wall', CTRL_ID='invert'/ 
&OBST ID='Internal wall 03.1', XB=45.8,47.2,35.0,35.4,55.8,58.0, SURF_ID='Wall', CTRL_ID='invert'/ 
&OBST ID='Internal wall 03.1', XB=30.4,31.2,30.0,30.4,55.8,58.0, SURF_ID='Wall', CTRL_ID='invert'/ 
&OBST ID='Internal wall 03.1', XB=29.4,29.8,31.0,31.8,55.8,58.0, SURF_ID='Wall', CTRL_ID='invert'/ 
&OBST ID='Internal wall 03.1', XB=29.4,29.8,32.6,33.4,55.8,58.0, SURF_ID='Wall', CTRL_ID='invert'/ 
&OBST ID='Internal wall 03.1', XB=34.4,35.2,35.4,35.8,55.8,58.0, SURF_ID='Wall', CTRL_ID='invert'/ 
&OBST ID='Internal wall 03.1', XB=36.2,37.6,35.0,35.4,55.8,58.0, SURF_ID='Wall', CTRL_ID='invert'/ 
&OBST ID='Internal wall 03.1', XB=35.6,35.8,35.4,35.8,55.8,59.6, SURF_ID='Wall'/ 
&OBST ID='Internal wall 03.1', XB=35.6,36.0,24.4,32.4,55.8,59.6, SURF_ID='Wall'/ 
&OBST ID='Internal wall 03.1', XB=35.6,36.2,35.0,35.4,55.8,59.6, SURF_ID='Wall'/ 
&OBST ID='Internal wall 03.1', XB=35.6,36.4,24.2,24.4,55.8,59.6, SURF_ID='Wall'/ 
&OBST ID='Internal wall 03.1', XB=35.6,37.2,24.0,24.2,55.8,59.6, SURF_ID='Wall'/ 
&OBST ID='Internal wall 03.1', XB=36.2,37.6,35.0,35.4,58.0,59.6, SURF_ID='Wall'/ 
&OBST ID='Internal wall 03.1', XB=36.4,38.0,23.8,24.0,55.8,59.6, SURF_ID='Wall'/ 
&OBST ID='Internal wall 03.1', XB=37.2,38.4,23.6,23.8,55.8,59.6, SURF_ID='Wall'/ 
&OBST ID='Internal wall 03.1', XB=37.6,45.8,35.0,35.4,55.8,59.6, SURF_ID='Wall'/ 
&OBST ID='Internal wall 03.1', XB=38.0,38.4,23.4,23.6,55.8,59.6, SURF_ID='Wall'/ 
&OBST ID='Internal wall 03.1', XB=45.6,46.0,22.4,24.8,55.8,59.6, SURF_ID='Wall'/ 
&OBST ID='Internal wall 03.1', XB=45.6,46.6,22.0,22.2,55.8,59.6, SURF_ID='Wall'/ 
&OBST ID='Internal wall 03.1', XB=45.6,47.6,22.2,22.4,55.8,59.6, SURF_ID='Wall'/ 
&OBST ID='Internal wall 03.1', XB=45.8,47.2,35.0,35.4,58.0,59.6, SURF_ID='Wall'/ 
&OBST ID='Internal wall 03.1', XB=46.6,48.6,22.4,22.6,55.8,59.6, SURF_ID='Wall'/ 
&OBST ID='Internal wall 03.1', XB=47.2,48.6,35.0,35.4,55.8,59.6, SURF_ID='Wall'/ 
&OBST ID='Internal wall 03.1', XB=47.6,48.6,22.6,22.8,55.8,59.6, SURF_ID='Wall'/ 
&OBST ID='Internal wall 03.1', XB=48.2,48.6,22.8,31.4,55.8,59.6, SURF_ID='Wall'/ 
&OBST ID='Internal wall 03.1', XB=48.2,48.6,32.2,33.4,55.8,59.6, SURF_ID='Wall'/ 
&OBST ID='Internal wall 03.1', XB=48.2,48.6,34.8,35.0,55.8,59.6, SURF_ID='Wall'/ 
! ... 18 like lines cut
&OBST ID='Obstruction', XB=36.8,37.8,30.4,30.6,71.0,73.2, SURF_ID='Wall', CTRL_ID='invert'/ 
&OBST ID='Internal 04', XB=48.2,48.6,33.8,34.6,59.6,61.8, SURF_ID='Wall', CTRL_ID='invert'/ 
&OBST ID='Internal 04', XB=48.2,48.6,31.6,32.4,59.6,61.8, SURF_ID='Wall', CTRL_ID='invert'/ 
&OBST ID='Internal 04', XB=45.8,47.2,35.0,35.4,59.6,61.8, SURF_ID='Wall', CTRL_ID='invert'/ 
&OBST ID='Internal 04', XB=33.4,33.8,28.6,29.4,59.6,61.8, SURF_ID='Wall', CTRL_ID='invert'/ 
&OBST ID='Internal 04', XB=33.4,33.8,31.6,33.4,59.6,61.8, SURF_ID='Wall', CTRL_ID='invert'/ 
&OBST ID='Internal 04', XB=36.2,37.6,35.0,35.4,59.6,61.8, SURF_ID='Wall', CTRL_ID='invert'/ 
&OBST ID='Internal 04', XB=34.4,35.2,34.6,35.0,59.6,61.8, SURF_ID='Wall', CTRL_ID='invert'/ 
&OBST ID='Internal 04', XB=33.4,33.8,28.0,28.6,59.6,63.4, SURF_ID='Wall'/ 
&OBST ID='Internal 04', XB=33.4,33.8,29.4,31.6,59.6,63.4, SURF_ID='Wall'/ 
&OBST ID='Internal 04', XB=33.4,33.8,33.4,34.6,59.6,63.4, SURF_ID='Wall'/ 
&OBST ID='Internal 04', XB=33.4,33.8,28.6,29.4,61.8,63.4, SURF_ID='Wall'/ 
&OBST ID='Internal 04', XB=33.4,33.8,31.6,33.4,61.8,63.4, SURF_ID='Wall'/ 
&OBST ID='Internal 04', XB=33.4,34.4,34.6,35.0,59.6,63.4, SURF_ID='Wall'/ 
&OBST ID='Internal 04', XB=33.4,35.6,27.6,28.0,59.6,63.4, SURF_ID='Wall'/ 
&OBST ID='Internal 04', XB=34.4,35.2,34.6,35.0,61.8,63.4, SURF_ID='Wall'/ 
&OBST ID='Internal 04', XB=35.2,35.6,34.6,35.0,59.6,63.4, SURF_ID='Wall'/ 
&OBST ID='Internal 04', XB=35.4,35.6,35.0,35.4,59.6,63.4, SURF_ID='Wall'/ 
&OBST ID='Internal 04', XB=35.6,35.8,34.6,35.0,59.6,63.4, SURF_ID='Wall'/ 
&OBST ID='Internal 04', XB=35.6,36.2,35.0,35.4,59.6,63.4, SURF_ID='Wall'/ 
&OBST ID='Internal 04', XB=35.6,38.6,27.6,28.0,59.6,63.4, SURF_ID='Wall'/ 
&OBST ID='Internal 04', XB=36.2,37.6,35.0,35.4,61.8,63.4, SURF_ID='Wall'/ 
&OBST ID='Internal 04', XB=37.6,45.8,35.0,35.4,59.6,63.4, SURF_ID='Wall'/ 
&OBST ID='Internal 04', XB=38.2,38.6,24.4,27.6,59.6,63.4, SURF_ID='Wall'/ 
&OBST ID='Internal 04', XB=45.4,46.0,24.2,24.6,59.6,63.4, SURF_ID='Wall'/ 
&OBST ID='Internal 04', XB=45.6,46.0,22.4,24.2,59.6,63.4, SURF_ID='Wall'/ 
&OBST ID='Internal 04', XB=45.6,46.6,22.0,22.2,59.6,63.4, SURF_ID='Wall'/ 
&OBST ID='Internal 04', XB=45.6,47.6,22.2,22.4,59.6,63.4, SURF_ID='Wall'/ 
! ... 9 like lines cut
&OBST ID='Internal wall 06', XB=48.2,48.6,32.0,32.8,67.2,69.4, SURF_ID='Wall', CTRL_ID='invert'/ 
&OBST ID='Internal wall 06', XB=48.2,48.6,33.8,34.6,67.2,69.4, SURF_ID='Wall', CTRL_ID='invert'/ 
&OBST ID='Internal wall 06', XB=46.0,47.4,35.0,35.4,67.2,69.4, SURF_ID='Wall', CTRL_ID='invert'/ 
&OBST ID='Internal wall 06', XB=27.4,27.8,37.6,38.4,67.2,69.4, SURF_ID='Wall', CTRL_ID='invert'/ 
&OBST ID='Internal wall 06', XB=28.2,29.0,38.6,39.0,67.2,69.4, SURF_ID='Wall', CTRL_ID='invert'/ 
&OBST ID='Internal wall 06', XB=27.4,27.8,35.0,35.8,67.2,69.4, SURF_ID='Wall', CTRL_ID='invert'/ 
&OBST ID='Internal wall 06', XB=36.4,37.8,35.0,35.4,67.2,69.4, SURF_ID='Wall', CTRL_ID='invert'/ 
&OBST ID='Internal wall 06', XB=34.6,35.4,35.4,35.8,67.2,69.4, SURF_ID='Wall', CTRL_ID='invert'/ 
&OBST ID='Internal wall 06', XB=35.6,36.0,35.4,35.8,67.2,71.0, SURF_ID='Wall'/ 
&OBST ID='Internal wall 06', XB=35.6,36.4,35.0,35.4,67.2,71.0, SURF_ID='Wall'/ 
&OBST ID='Internal wall 06', XB=35.6,38.6,30.2,30.6,67.2,71.0, SURF_ID='Wall'/ 
&OBST ID='Internal wall 06', XB=36.4,37.8,35.0,35.4,69.4,71.0, SURF_ID='Wall'/ 
&OBST ID='Internal wall 06', XB=37.8,46.0,35.0,35.4,67.2,71.0, SURF_ID='Wall'/ 
&OBST ID='Internal wall 06', XB=38.2,38.6,30.0,30.2,67.2,71.0, SURF_ID='Wall'/ 
&OBST ID='Internal wall 06', XB=46.0,47.4,35.0,35.4,69.4,71.0, SURF_ID='Wall'/ 
&OBST ID='Internal wall 06', XB=47.4,48.6,35.0,35.4,67.2,71.0, SURF_ID='Wall'/ 
&OBST ID='Internal wall 06', XB=48.2,48.6,30.0,32.0,67.2,71.0, SURF_ID='Wall'/ 
&OBST ID='Internal wall 06', XB=48.2,48.6,32.8,33.8,67.2,71.0, SURF_ID='Wall'/ 
&OBST ID='Internal wall 06', XB=48.2,48.6,34.6,35.0,67.2,71.0, SURF_ID='Wall'/ 
&OBST ID='Internal wall 06', XB=48.2,48.6,32.0,32.8,69.4,71.0, SURF_ID='Wall'/ 
&OBST ID='Internal wall 06', XB=48.2,48.6,33.8,34.6,69.4,71.0, SURF_ID='Wall'/ 
&OBST ID='Internal wall 06', XB=35.6,35.6,30.6,33.2,67.2,71.0, SURF_ID='Wall'/ 
&OBST ID='Internal wall 06', XB=38.2,38.6,24.8,30.0,67.2,71.0, SURF_ID='Wall'/ 
&OBST ID='Internal wall 06', XB=38.2,39.0,24.4,24.8,67.2,71.0, SURF_ID='Wall'/ 
&OBST ID='Internal wall 06', XB=45.4,46.0,24.4,24.8,67.2,71.0, SURF_ID='Wall'/ 
&OBST ID='Internal wall 06', XB=45.6,46.0,22.4,24.4,67.2,71.0, SURF_ID='Wall'/ 
&OBST ID='Internal wall 06', XB=45.6,46.6,22.0,22.2,67.2,71.0, SURF_ID='Wall'/ 
&OBST ID='Internal wall 06', XB=45.6,47.6,22.2,22.4,67.2,71.0, SURF_ID='Wall'/ 
! ... 24 like lines cut
&OBST ID='Internal wall 07', XB=46.2,47.6,35.0,35.2,71.0,73.2, SURF_ID='Wall', CTRL_ID='invert'/ 
&OBST ID='Internal wall 07', XB=36.4,37.8,35.0,35.2,71.0,73.2, SURF_ID='Wall', CTRL_ID='invert'/ 
&OBST ID='Internal wall 07', XB=33.8,34.0,34.0,35.0,71.0,73.2, SURF_ID='Wall', CTRL_ID='invert'/ 
&OBST ID='Internal wall 07', XB=35.6,48.4,35.0,35.2,70.8,71.0, SURF_ID='Wall'/ 
&OBST ID='Internal wall 07', XB=48.2,48.4,35.2,36.6,70.8,71.0, SURF_ID='Wall'/ 
&OBST ID='Internal wall 07', XB=48.2,49.4,36.6,36.8,70.8,71.0, SURF_ID='Wall'/ 
&OBST ID='Internal wall 07', XB=49.4,49.4,36.8,37.0,70.8,71.0, SURF_ID='Wall'/ 
&OBST ID='Internal wall 07', XB=35.6,36.0,24.2,24.4,70.8,71.0, SURF_ID='Wall'/ 
&OBST ID='Internal wall 07', XB=36.0,36.8,24.0,24.2,70.8,71.0, SURF_ID='Wall'/ 
&OBST ID='Internal wall 07', XB=36.6,37.4,23.8,24.0,70.8,71.0, SURF_ID='Wall'/ 
&OBST ID='Internal wall 07', XB=37.4,38.2,23.6,23.8,70.8,71.0, SURF_ID='Wall'/ 
&OBST ID='Internal wall 07', XB=38.2,38.8,23.4,23.6,70.8,71.0, SURF_ID='Wall'/ 
&OBST ID='Internal wall 07', XB=38.6,38.8,23.6,24.6,70.8,71.0, SURF_ID='Wall'/ 
&OBST ID='Internal wall 07', XB=38.6,39.2,24.6,24.8,70.8,71.0, SURF_ID='Wall'/ 
&OBST ID='Internal wall 07', XB=45.6,46.0,24.6,24.8,70.8,71.0, SURF_ID='Wall'/ 
&OBST ID='Internal wall 07', XB=45.8,46.0,23.4,24.6,70.8,71.0, SURF_ID='Wall'/ 
&OBST ID='Internal wall 07', XB=45.8,49.4,23.2,23.4,70.8,71.0, SURF_ID='Wall'/ 
&OBST ID='Internal wall 07', XB=35.6,36.0,24.2,24.4,71.0,74.8, SURF_ID='Wall'/ 
&OBST ID='Internal wall 07', XB=35.6,36.4,35.0,35.2,71.0,74.8, SURF_ID='Wall'/ 
&OBST ID='Internal wall 07', XB=36.0,36.8,24.0,24.2,71.0,74.8, SURF_ID='Wall'/ 
&OBST ID='Internal wall 07', XB=36.4,37.8,35.0,35.2,73.2,74.8, SURF_ID='Wall'/ 
&OBST ID='Internal wall 07', XB=36.6,37.4,23.8,24.0,71.0,74.8, SURF_ID='Wall'/ 
&OBST ID='Internal wall 07', XB=37.4,38.2,23.6,23.8,71.0,74.8, SURF_ID='Wall'/ 
! ... 34 like lines cut

&VENT ID='Mesh Vent: LF atrium mesh [YMIN]', SURF_ID='OPEN', XB=35.6,48.4,22.0,22.0,44.0,52.0/ 
&VENT ID='Mesh Vent: LF right of atrium-b [XMAX]', SURF_ID='OPEN', XB=57.6,57.6,34.2,42.0,44.0,52.0/ 
&VENT ID='Vent', SURF_ID='OPEN', XB=48.4,48.4,22.0,24.0,44.0,52.0/ 
&VENT ID='Mesh Vent: LF right of atrium-a [XMAX]', SURF_ID='OPEN', XB=57.6,57.6,24.0,34.2,44.0,52.0/ 
&VENT ID='Mesh Vent: LF right of atrium-a [YMIN]', SURF_ID='OPEN', XB=48.4,57.6,24.0,24.0,44.0,52.0/ 
&VENT ID='Vent01', SURF_ID='OPEN', XB=35.6,49.4,22.0,22.0,52.0,62.4/ 
&VENT ID='Vent02', SURF_ID='OPEN', XB=35.6,49.4,22.0,22.0,62.4,76.8/ 
&VENT ID='Vent03', SURF_ID='OPEN', XB=35.6,49.4,22.0,37.0,76.8,76.8/ 

&SLCF QUANTITY='TEMPERATURE', PBZ=46.4/
&SLCF QUANTITY='VISIBILITY', PBZ=46.4/
&SLCF QUANTITY='TEMPERATURE', PBZ=50.2/
&SLCF QUANTITY='VISIBILITY', PBZ=50.2/
&SLCF QUANTITY='TEMPERATURE', PBZ=54.0/
&SLCF QUANTITY='VISIBILITY', PBZ=54.0/
&SLCF QUANTITY='TEMPERATURE', PBZ=57.8/
&SLCF QUANTITY='VISIBILITY', PBZ=57.8/
&SLCF QUANTITY='TEMPERATURE', PBZ=61.6/
&SLCF QUANTITY='VISIBILITY', PBZ=61.6/
&SLCF QUANTITY='TEMPERATURE', PBZ=65.4/
&SLCF QUANTITY='VISIBILITY', PBZ=65.4/
&SLCF QUANTITY='TEMPERATURE', PBZ=69.2/
&SLCF QUANTITY='VISIBILITY', PBZ=69.2/
&SLCF QUANTITY='TEMPERATURE', PBZ=73.0/
&SLCF QUANTITY='VISIBILITY', PBZ=73.0/
&SLCF QUANTITY='TEMPERATURE', PBX=42.0/
&SLCF QUANTITY='VISIBILITY', PBX=42.0/
&SLCF QUANTITY='VELOCITY', VECTOR=.TRUE., PBX=42.0/
&SLCF QUANTITY='TEMPERATURE', PBX=51.4/
&SLCF QUANTITY='VISIBILITY', PBX=51.4/
&SLCF QUANTITY='VELOCITY', VECTOR=.TRUE., PBX=51.4/
&SLCF QUANTITY='TEMPERATURE', PBY=30.0/
&SLCF QUANTITY='VISIBILITY', PBY=30.0/
&SLCF QUANTITY='VELOCITY', VECTOR=.TRUE., PBY=30.0/
&SLCF QUANTITY='TEMPERATURE', PBY=33.2/
&SLCF QUANTITY='VISIBILITY', PBY=33.2/
&SLCF QUANTITY='VELOCITY', VECTOR=.TRUE., PBY=33.2/
&SLCF QUANTITY='VELOCITY', VECTOR=.TRUE., PBZ=46.4/
&SLCF QUANTITY='VELOCITY', VECTOR=.TRUE., PBZ=50.2/
&SLCF QUANTITY='VELOCITY', VECTOR=.TRUE., PBZ=54.0/
&SLCF QUANTITY='VELOCITY', VECTOR=.TRUE., PBZ=57.8/
&SLCF QUANTITY='VELOCITY', VECTOR=.TRUE., PBZ=61.6/
&SLCF QUANTITY='VELOCITY', VECTOR=.TRUE., PBZ=65.4/
&SLCF QUANTITY='VELOCITY', VECTOR=.TRUE., PBZ=69.2/
&SLCF QUANTITY='VELOCITY', VECTOR=.TRUE., PBZ=73.0/
&SLCF QUANTITY='TEMPERATURE', PBX=41.0/
&SLCF QUANTITY='TEMPERATURE', PBY=34.0/
&SLCF QUANTITY='VISIBILITY', PBX=41.0/
&SLCF QUANTITY='VISIBILITY', PBY=34.0/
&SLCF QUANTITY='VELOCITY', VECTOR=.TRUE., PBX=41.0/
&SLCF QUANTITY='VELOCITY', VECTOR=.TRUE., PBY=34.0/

&DEVC ID='vis_lev1_l_1', QUANTITY='VISIBILITY', XYZ=36.2,34.4,50.2/
&DEVC ID='vis_lev1_l_2', QUANTITY='VISIBILITY', XYZ=36.4,34.4,50.2/
&DEVC ID='vis_lev1_l_3', QUANTITY='VISIBILITY', XYZ=36.7,34.4,50.2/
&DEVC ID='vis_lev1_l_4', QUANTITY='VISIBILITY', XYZ=36.9,34.4,50.2/
&DEVC ID='vis_lev1_l_5', QUANTITY='VISIBILITY', XYZ=37.2,34.4,50.2/
&DEVC ID='vis_lev1_l_6', QUANTITY='VISIBILITY', XYZ=37.4,34.4,50.2/
&DEVC ID='vis_lev1_r_1', QUANTITY='VISIBILITY', XYZ=45.8,34.4,50.2/
&DEVC ID='vis_lev1_r_2', QUANTITY='VISIBILITY', XYZ=46.0,34.4,50.2/
&DEVC ID='vis_lev1_r_3', QUANTITY='VISIBILITY', XYZ=46.3,34.4,50.2/
&DEVC ID='vis_lev1_r_4', QUANTITY='VISIBILITY', XYZ=46.5,34.4,50.2/
&DEVC ID='vis_lev1_r_5', QUANTITY='VISIBILITY', XYZ=46.7,34.4,50.2/
&DEVC ID='vis_lev1_r_6', QUANTITY='VISIBILITY', XYZ=47.0,34.4,50.2/
&DEVC ID='vis_lev1_r_7', QUANTITY='VISIBILITY', XYZ=47.2,34.4,50.2/
&DEVC ID='vis_lev2_l_1', QUANTITY='VISIBILITY', XYZ=36.2,34.4,54.0/
&DEVC ID='vis_lev2_l_2', QUANTITY='VISIBILITY', XYZ=36.4,34.4,54.0/
&DEVC ID='vis_lev2_l_3', QUANTITY='VISIBILITY', XYZ=36.7,34.4,54.0/
&DEVC ID='vis_lev2_l_4', QUANTITY='VISIBILITY', XYZ=36.9,34.4,54.0/
&DEVC ID='vis_lev2_l_5', QUANTITY='VISIBILITY', XYZ=37.2,34.4,54.0/
&DEVC ID='vis_lev2_l_6', QUANTITY='VISIBILITY', XYZ=37.4,34.4,54.0/
&DEVC ID='vis_lev2_r_1', QUANTITY='VISIBILITY', XYZ=45.8,34.4,54.0/
&DEVC ID='vis_lev2_r_2', QUANTITY='VISIBILITY', XYZ=46.0,34.4,54.0/
&DEVC ID='vis_lev2_r_3', QUANTITY='VISIBILITY', XYZ=46.3,34.4,54.0/
&DEVC ID='vis_lev2_r_4', QUANTITY='VISIBILITY', XYZ=46.5,34.4,54.0/
&DEVC ID='vis_lev2_r_5', QUANTITY='VISIBILITY', XYZ=46.7,34.4,54.0/
&DEVC ID='vis_lev2_r_6', QUANTITY='VISIBILITY', XYZ=47.0,34.4,54.0/
&DEVC ID='vis_lev2_r_7', QUANTITY='VISIBILITY', XYZ=47.2,34.4,54.0/
&DEVC ID='vis_lev3_l_1', QUANTITY='VISIBILITY', XYZ=36.2,34.4,57.8/
&DEVC ID='vis_lev3_l_2', QUANTITY='VISIBILITY', XYZ=36.4,34.4,57.8/
&DEVC ID='vis_lev3_l_3', QUANTITY='VISIBILITY', XYZ=36.7,34.4,57.8/
&DEVC ID='vis_lev3_l_4', QUANTITY='VISIBILITY', XYZ=36.9,34.4,57.8/
&DEVC ID='vis_lev3_l_5', QUANTITY='VISIBILITY', XYZ=37.2,34.4,57.8/
&DEVC ID='vis_lev3_l_6', QUANTITY='VISIBILITY', XYZ=37.4,34.4,57.8/
&DEVC ID='vis_lev3_r_1', QUANTITY='VISIBILITY', XYZ=45.8,34.4,57.8/
&DEVC ID='vis_lev3_r_2', QUANTITY='VISIBILITY', XYZ=46.0,34.4,57.8/
&DEVC ID='vis_lev3_r_3', QUANTITY='VISIBILITY', XYZ=46.3,34.4,57.8/
&DEVC ID='vis_lev3_r_4', QUANTITY='VISIBILITY', XYZ=46.5,34.4,57.8/
&DEVC ID='vis_lev3_r_5', QUANTITY='VISIBILITY', XYZ=46.7,34.4,57.8/
&DEVC ID='vis_lev3_r_6', QUANTITY='VISIBILITY', XYZ=47.0,34.4,57.8/
&DEVC ID='vis_lev3_r_7', QUANTITY='VISIBILITY', XYZ=47.2,34.4,57.8/
&DEVC ID='vis_lev4_l_1', QUANTITY='VISIBILITY', XYZ=36.2,34.4,61.6/
&DEVC ID='vis_lev4_l_2', QUANTITY='VISIBILITY', XYZ=36.4,34.4,61.6/
&DEVC ID='vis_lev4_l_3', QUANTITY='VISIBILITY', XYZ=36.7,34.4,61.6/
&DEVC ID='vis_lev4_l_4', QUANTITY='VISIBILITY', XYZ=36.9,34.4,61.6/
&DEVC ID='vis_lev4_l_5', QUANTITY='VISIBILITY', XYZ=37.2,34.4,61.6/
&DEVC ID='vis_lev4_l_6', QUANTITY='VISIBILITY', XYZ=37.4,34.4,61.6/
&DEVC ID='vis_lev4_r_1', QUANTITY='VISIBILITY', XYZ=45.8,34.4,61.6/
&DEVC ID='vis_lev4_r_2', QUANTITY='VISIBILITY', XYZ=46.0,34.4,61.6/
&DEVC ID='vis_lev4_r_3', QUANTITY='VISIBILITY', XYZ=46.3,34.4,61.6/
&DEVC ID='vis_lev4_r_4', QUANTITY='VISIBILITY', XYZ=46.5,34.4,61.6/
&DEVC ID='vis_lev4_r_5', QUANTITY='VISIBILITY', XYZ=46.7,34.4,61.6/
&DEVC ID='vis_lev4_r_6', QUANTITY='VISIBILITY', XYZ=47.0,34.4,61.6/
&DEVC ID='vis_lev4_r_7', QUANTITY='VISIBILITY', XYZ=47.2,34.4,61.6/
&DEVC ID='vis_lev5_l_1', QUANTITY='VISIBILITY', XYZ=36.2,34.4,65.4/
&DEVC ID='vis_lev5_l_2', QUANTITY='VISIBILITY', XYZ=36.4,34.4,65.4/
&DEVC ID='vis_lev5_l_3', QUANTITY='VISIBILITY', XYZ=36.7,34.4,65.4/
&DEVC ID='vis_lev5_l_4', QUANTITY='VISIBILITY', XYZ=36.9,34.4,65.4/
&DEVC ID='vis_lev5_l_5', QUANTITY='VISIBILITY', XYZ=37.2,34.4,65.4/
&DEVC ID='vis_lev5_l_6', QUANTITY='VISIBILITY', XYZ=37.4,34.4,65.4/
&DEVC ID='vis_lev5_r_1', QUANTITY='VISIBILITY', XYZ=45.8,34.4,65.4/
&DEVC ID='vis_lev5_r_2', QUANTITY='VISIBILITY', XYZ=46.0,34.4,65.4/
&DEVC ID='vis_lev5_r_3', QUANTITY='VISIBILITY', XYZ=46.3,34.4,65.4/
&DEVC ID='vis_lev5_r_4', QUANTITY='VISIBILITY', XYZ=46.5,34.4,65.4/
&DEVC ID='vis_lev5_r_5', QUANTITY='VISIBILITY', XYZ=46.7,34.4,65.4/
&DEVC ID='vis_lev5_r_6', QUANTITY='VISIBILITY', XYZ=47.0,34.4,65.4/
&DEVC ID='vis_lev5_r_7', QUANTITY='VISIBILITY', XYZ=47.2,34.4,65.4/
&DEVC ID='vis_lev6_l_1', QUANTITY='VISIBILITY', XYZ=36.2,34.4,69.2/
&DEVC ID='vis_lev6_l_2', QUANTITY='VISIBILITY', XYZ=36.4,34.4,69.2/
&DEVC ID='vis_lev6_l_3', QUANTITY='VISIBILITY', XYZ=36.7,34.4,69.2/
&DEVC ID='vis_lev6_l_4', QUANTITY='VISIBILITY', XYZ=36.9,34.4,69.2/
&DEVC ID='vis_lev6_l_5', QUANTITY='VISIBILITY', XYZ=37.2,34.4,69.2/
&DEVC ID='vis_lev6_l_6', QUANTITY='VISIBILITY', XYZ=37.4,34.4,69.2/
&DEVC ID='vis_lev6_r_1', QUANTITY='VISIBILITY', XYZ=45.8,34.4,69.2/
&DEVC ID='vis_lev6_r_2', QUANTITY='VISIBILITY', XYZ=46.0,34.4,69.2/
&DEVC ID='vis_lev6_r_3', QUANTITY='VISIBILITY', XYZ=46.3,34.4,69.2/
&DEVC ID='vis_lev6_r_4', QUANTITY='VISIBILITY', XYZ=46.5,34.4,69.2/
&DEVC ID='vis_lev6_r_5', QUANTITY='VISIBILITY', XYZ=46.7,34.4,69.2/
&DEVC ID='vis_lev6_r_6', QUANTITY='VISIBILITY', XYZ=47.0,34.4,69.2/
&DEVC ID='vis_lev6_r_7', QUANTITY='VISIBILITY', XYZ=47.2,34.4,69.2/
&DEVC ID='vis_lev7_l_1', QUANTITY='VISIBILITY', XYZ=36.2,34.4,73.0/
&DEVC ID='vis_lev7_l_2', QUANTITY='VISIBILITY', XYZ=36.4,34.4,73.0/
&DEVC ID='vis_lev7_l_3', QUANTITY='VISIBILITY', XYZ=36.7,34.4,73.0/
&DEVC ID='vis_lev7_l_4', QUANTITY='VISIBILITY', XYZ=36.9,34.4,73.0/
&DEVC ID='vis_lev7_l_5', QUANTITY='VISIBILITY', XYZ=37.2,34.4,73.0/
&DEVC ID='vis_lev7_l_6', QUANTITY='VISIBILITY', XYZ=37.4,34.4,73.0/
&DEVC ID='vis_lev7_r_1', QUANTITY='VISIBILITY', XYZ=45.8,34.4,73.0/
&DEVC ID='vis_lev7_r_2', QUANTITY='VISIBILITY', XYZ=46.0,34.4,73.0/
&DEVC ID='vis_lev7_r_3', QUANTITY='VISIBILITY', XYZ=46.3,34.4,73.0/
&DEVC ID='vis_lev7_r_4', QUANTITY='VISIBILITY', XYZ=46.5,34.4,73.0/
&DEVC ID='vis_lev7_r_5', QUANTITY='VISIBILITY', XYZ=46.7,34.4,73.0/
&DEVC ID='vis_lev7_r_6', QUANTITY='VISIBILITY', XYZ=47.0,34.4,73.0/
&DEVC ID='vis_lev7_r_7', QUANTITY='VISIBILITY', XYZ=47.2,34.4,73.0/
&DEVC ID='temp_lev1_l_1', QUANTITY='TEMPERATURE', XYZ=36.2,34.4,50.2/
&DEVC ID='temp_lev1_l_2', QUANTITY='TEMPERATURE', XYZ=36.4,34.4,50.2/
&DEVC ID='temp_lev1_l_3', QUANTITY='TEMPERATURE', XYZ=36.7,34.4,50.2/
&DEVC ID='temp_lev1_l_4', QUANTITY='TEMPERATURE', XYZ=36.9,34.4,50.2/
&DEVC ID='temp_lev1_l_5', QUANTITY='TEMPERATURE', XYZ=37.2,34.4,50.2/
&DEVC ID='temp_lev1_l_6', QUANTITY='TEMPERATURE', XYZ=37.4,34.4,50.2/
&DEVC ID='temp_lev1_r_1', QUANTITY='TEMPERATURE', XYZ=45.8,34.4,50.2/
&DEVC ID='temp_lev1_r_2', QUANTITY='TEMPERATURE', XYZ=46.0,34.4,50.2/
&DEVC ID='temp_lev1_r_3', QUANTITY='TEMPERATURE', XYZ=46.3,34.4,50.2/
&DEVC ID='temp_lev1_r_4', QUANTITY='TEMPERATURE', XYZ=46.5,34.4,50.2/
&DEVC ID='temp_lev1_r_5', QUANTITY='TEMPERATURE', XYZ=46.7,34.4,50.2/
&DEVC ID='temp_lev1_r_6', QUANTITY='TEMPERATURE', XYZ=47.0,34.4,50.2/
&DEVC ID='temp_lev1_r_7', QUANTITY='TEMPERATURE', XYZ=47.2,34.4,50.2/
&DEVC ID='temp_lev2_l_1', QUANTITY='TEMPERATURE', XYZ=36.2,34.4,54.0/
&DEVC ID='temp_lev2_l_2', QUANTITY='TEMPERATURE', XYZ=36.4,34.4,54.0/
&DEVC ID='temp_lev2_l_3', QUANTITY='TEMPERATURE', XYZ=36.7,34.4,54.0/
&DEVC ID='temp_lev2_l_4', QUANTITY='TEMPERATURE', XYZ=36.9,34.4,54.0/
&DEVC ID='temp_lev2_l_5', QUANTITY='TEMPERATURE', XYZ=37.2,34.4,54.0/
&DEVC ID='temp_lev2_l_6', QUANTITY='TEMPERATURE', XYZ=37.4,34.4,54.0/
&DEVC ID='temp_lev2_r_1', QUANTITY='TEMPERATURE', XYZ=45.8,34.4,54.0/
&DEVC ID='temp_lev2_r_2', QUANTITY='TEMPERATURE', XYZ=46.0,34.4,54.0/
&DEVC ID='temp_lev2_r_3', QUANTITY='TEMPERATURE', XYZ=46.3,34.4,54.0/
&DEVC ID='temp_lev2_r_4', QUANTITY='TEMPERATURE', XYZ=46.5,34.4,54.0/
&DEVC ID='temp_lev2_r_5', QUANTITY='TEMPERATURE', XYZ=46.7,34.4,54.0/
&DEVC ID='temp_lev2_r_6', QUANTITY='TEMPERATURE', XYZ=47.0,34.4,54.0/
&DEVC ID='temp_lev2_r_7', QUANTITY='TEMPERATURE', XYZ=47.2,34.4,54.0/
&DEVC ID='temp_lev3_l_1', QUANTITY='TEMPERATURE', XYZ=36.2,34.4,57.8/
&DEVC ID='temp_lev3_l_2', QUANTITY='TEMPERATURE', XYZ=36.4,34.4,57.8/
&DEVC ID='temp_lev3_l_3', QUANTITY='TEMPERATURE', XYZ=36.7,34.4,57.8/
&DEVC ID='temp_lev3_l_4', QUANTITY='TEMPERATURE', XYZ=36.9,34.4,57.8/
&DEVC ID='temp_lev3_l_5', QUANTITY='TEMPERATURE', XYZ=37.2,34.4,57.8/
&DEVC ID='temp_lev3_l_6', QUANTITY='TEMPERATURE', XYZ=37.4,34.4,57.8/
&DEVC ID='temp_lev3_r_1', QUANTITY='TEMPERATURE', XYZ=45.8,34.4,57.8/
&DEVC ID='temp_lev3_r_2', QUANTITY='TEMPERATURE', XYZ=46.0,34.4,57.8/
&DEVC ID='temp_lev3_r_3', QUANTITY='TEMPERATURE', XYZ=46.3,34.4,57.8/
&DEVC ID='temp_lev3_r_4', QUANTITY='TEMPERATURE', XYZ=46.5,34.4,57.8/
&DEVC ID='temp_lev3_r_5', QUANTITY='TEMPERATURE', XYZ=46.7,34.4,57.8/
&DEVC ID='temp_lev3_r_6', QUANTITY='TEMPERATURE', XYZ=47.0,34.4,57.8/
&DEVC ID='temp_lev3_r_7', QUANTITY='TEMPERATURE', XYZ=47.2,34.4,57.8/
&DEVC ID='temp_lev4_l_1', QUANTITY='TEMPERATURE', XYZ=36.2,34.4,61.6/
&DEVC ID='temp_lev4_l_2', QUANTITY='TEMPERATURE', XYZ=36.4,34.4,61.6/
&DEVC ID='temp_lev4_l_3', QUANTITY='TEMPERATURE', XYZ=36.7,34.4,61.6/
&DEVC ID='temp_lev4_l_4', QUANTITY='TEMPERATURE', XYZ=36.9,34.4,61.6/
&DEVC ID='temp_lev4_l_5', QUANTITY='TEMPERATURE', XYZ=37.2,34.4,61.6/
&DEVC ID='temp_lev4_l_6', QUANTITY='TEMPERATURE', XYZ=37.4,34.4,61.6/
&DEVC ID='temp_lev4_r_1', QUANTITY='TEMPERATURE', XYZ=45.8,34.4,61.6/
&DEVC ID='temp_lev4_r_2', QUANTITY='TEMPERATURE', XYZ=46.0,34.4,61.6/
&DEVC ID='temp_lev4_r_3', QUANTITY='TEMPERATURE', XYZ=46.3,34.4,61.6/
&DEVC ID='temp_lev4_r_4', QUANTITY='TEMPERATURE', XYZ=46.5,34.4,61.6/
&DEVC ID='temp_lev4_r_5', QUANTITY='TEMPERATURE', XYZ=46.7,34.4,61.6/
&DEVC ID='temp_lev4_r_6', QUANTITY='TEMPERATURE', XYZ=47.0,34.4,61.6/
&DEVC ID='temp_lev4_r_7', QUANTITY='TEMPERATURE', XYZ=47.2,34.4,61.6/
&DEVC ID='temp_lev5_l_1', QUANTITY='TEMPERATURE', XYZ=36.2,34.4,65.4/
&DEVC ID='temp_lev5_l_2', QUANTITY='TEMPERATURE', XYZ=36.4,34.4,65.4/
&DEVC ID='temp_lev5_l_3', QUANTITY='TEMPERATURE', XYZ=36.7,34.4,65.4/
&DEVC ID='temp_lev5_l_4', QUANTITY='TEMPERATURE', XYZ=36.9,34.4,65.4/
&DEVC ID='temp_lev5_l_5', QUANTITY='TEMPERATURE', XYZ=37.2,34.4,65.4/
&DEVC ID='temp_lev5_l_6', QUANTITY='TEMPERATURE', XYZ=37.4,34.4,65.4/
&DEVC ID='temp_lev5_r_1', QUANTITY='TEMPERATURE', XYZ=45.8,34.4,65.4/
&DEVC ID='temp_lev5_r_2', QUANTITY='TEMPERATURE', XYZ=46.0,34.4,65.4/
&DEVC ID='temp_lev5_r_3', QUANTITY='TEMPERATURE', XYZ=46.3,34.4,65.4/
&DEVC ID='temp_lev5_r_4', QUANTITY='TEMPERATURE', XYZ=46.5,34.4,65.4/
&DEVC ID='temp_lev5_r_5', QUANTITY='TEMPERATURE', XYZ=46.7,34.4,65.4/
&DEVC ID='temp_lev5_r_6', QUANTITY='TEMPERATURE', XYZ=47.0,34.4,65.4/
&DEVC ID='temp_lev5_r_7', QUANTITY='TEMPERATURE', XYZ=47.2,34.4,65.4/
&DEVC ID='temp_lev6_l_1', QUANTITY='TEMPERATURE', XYZ=36.2,34.4,69.2/
&DEVC ID='temp_lev6_l_2', QUANTITY='TEMPERATURE', XYZ=36.4,34.4,69.2/
&DEVC ID='temp_lev6_l_3', QUANTITY='TEMPERATURE', XYZ=36.7,34.4,69.2/
&DEVC ID='temp_lev6_l_4', QUANTITY='TEMPERATURE', XYZ=36.9,34.4,69.2/
&DEVC ID='temp_lev6_l_5', QUANTITY='TEMPERATURE', XYZ=37.2,34.4,69.2/
&DEVC ID='temp_lev6_l_6', QUANTITY='TEMPERATURE', XYZ=37.4,34.4,69.2/
&DEVC ID='temp_lev6_r_1', QUANTITY='TEMPERATURE', XYZ=45.8,34.4,69.2/
&DEVC ID='temp_lev6_r_2', QUANTITY='TEMPERATURE', XYZ=46.0,34.4,69.2/
&DEVC ID='temp_lev6_r_3', QUANTITY='TEMPERATURE', XYZ=46.3,34.4,69.2/
&DEVC ID='temp_lev6_r_4', QUANTITY='TEMPERATURE', XYZ=46.5,34.4,69.2/
&DEVC ID='temp_lev6_r_5', QUANTITY='TEMPERATURE', XYZ=46.7,34.4,69.2/
&DEVC ID='temp_lev6_r_6', QUANTITY='TEMPERATURE', XYZ=47.0,34.4,69.2/
&DEVC ID='temp_lev6_r_7', QUANTITY='TEMPERATURE', XYZ=47.2,34.4,69.2/
&DEVC ID='temp_lev7_l_1', QUANTITY='TEMPERATURE', XYZ=36.2,34.4,73.0/
&DEVC ID='temp_lev7_l_2', QUANTITY='TEMPERATURE', XYZ=36.4,34.4,73.0/
&DEVC ID='temp_lev7_l_3', QUANTITY='TEMPERATURE', XYZ=36.7,34.4,73.0/
&DEVC ID='temp_lev7_l_4', QUANTITY='TEMPERATURE', XYZ=36.9,34.4,73.0/
&DEVC ID='temp_lev7_l_5', QUANTITY='TEMPERATURE', XYZ=37.2,34.4,73.0/
&DEVC ID='temp_lev7_l_6', QUANTITY='TEMPERATURE', XYZ=37.4,34.4,73.0/
&DEVC ID='temp_lev7_r_1', QUANTITY='TEMPERATURE', XYZ=45.8,34.4,73.0/
&DEVC ID='temp_lev7_r_2', QUANTITY='TEMPERATURE', XYZ=46.0,34.4,73.0/
&DEVC ID='temp_lev7_r_3', QUANTITY='TEMPERATURE', XYZ=46.3,34.4,73.0/
&DEVC ID='temp_lev7_r_4', QUANTITY='TEMPERATURE', XYZ=46.5,34.4,73.0/
&DEVC ID='temp_lev7_r_5', QUANTITY='TEMPERATURE', XYZ=46.7,34.4,73.0/
&DEVC ID='temp_lev7_r_6', QUANTITY='TEMPERATURE', XYZ=47.0,34.4,73.0/
&DEVC ID='temp_lev7_r_7', QUANTITY='TEMPERATURE', XYZ=47.2,34.4,73.0/


&TAIL /
